
#======================================================================
# CRYSTAL DATA
#----------------------------------------------------------------------
data_VESTA_phase_1

_chemical_name_common                  'calf20-squ'
_cell_length_a                         10.502000
_cell_length_b                         10.301000
_cell_length_c                         9.446000
_cell_angle_alpha                      90.000000
_cell_angle_beta                       124.629997
_cell_angle_gamma                      90.000000
_cell_volume                           840.841567
_space_group_name_H-M_alt              'P 1'
_space_group_IT_number                 1

loop_
_space_group_symop_operation_xyz
   'x, y, z'

loop_
   _atom_site_label
   _atom_site_occupancy
   _atom_site_fract_x
   _atom_site_fract_y
   _atom_site_fract_z
   _atom_site_adp_type
   _atom_site_U_iso_or_equiv
   _atom_site_type_symbol
   Zn1        1.0     0.133630     0.065820     0.446060    Uiso  ? Zn
   Zn2        1.0     0.866380     0.568100     0.053780    Uiso  ? Zn
   Zn3        1.0     0.866390     0.934180     0.554000    Uiso  ? Zn
   Zn4        1.0     0.133650     0.432000     0.946280    Uiso  ? Zn
   H1         1.0     0.089690     0.828460     0.203790    Uiso  ? H
   H2         1.0     0.794960     0.674400     0.327430    Uiso  ? H
   H3         1.0     0.911460     0.330740     0.298100    Uiso  ? H
   H4         1.0     0.204810     0.175320     0.173430    Uiso  ? H
   H5         1.0     0.910330     0.171540     0.796270    Uiso  ? H
   H6         1.0     0.205070     0.325700     0.672620    Uiso  ? H
   H7         1.0     0.088490     0.669260     0.701830    Uiso  ? H
   H8         1.0     0.795140     0.824680     0.826500    Uiso  ? H
   C1         1.0     0.021960     0.813710     0.255520    Uiso  ? C
   C2         1.0     0.871940     0.738180     0.319330    Uiso  ? C
   C3         1.0     0.395180     0.983500     0.380440    Uiso  ? C
   C4         1.0     0.559830     0.971260     0.449400    Uiso  ? C
   C5         1.0     0.979590     0.315790     0.246770    Uiso  ? C
   C6         1.0     0.128610     0.239690     0.182310    Uiso  ? C
   C7         1.0     0.604730     0.481990     0.119390    Uiso  ? C
   C8         1.0     0.439830     0.472870     0.050690    Uiso  ? C
   C9         1.0     0.978100     0.186390     0.744420    Uiso  ? C
   C10        1.0     0.128080     0.261820     0.680730    Uiso  ? C
   C11        1.0     0.604940     0.016500     0.619620    Uiso  ? C
   C12        1.0     0.440190     0.028740     0.550660    Uiso  ? C
   C13        1.0     0.020530     0.684210     0.753290    Uiso  ? C
   C14        1.0     0.871420     0.760310     0.817750    Uiso  ? C
   C15        1.0     0.395290     0.518010     0.880660    Uiso  ? C
   C16        1.0     0.560290     0.527130     0.949370    Uiso  ? C
   N1         1.0     0.022480     0.897780     0.361790    Uiso  ? N
   N2         1.0     0.925790     0.849530     0.402700    Uiso  ? N
   N3         1.0     0.929000     0.712070     0.225670    Uiso  ? N
   N4         1.0     0.979680     0.400250     0.141140    Uiso  ? N
   N5         1.0     0.075720     0.351420     0.099710    Uiso  ? N
   N6         1.0     0.071580     0.213570     0.275840    Uiso  ? N
   N7         1.0     0.977640     0.102220     0.638270    Uiso  ? N
   N8         1.0     0.074170     0.150470     0.597230    Uiso  ? N
   N9         1.0     0.071020     0.287930     0.774390    Uiso  ? N
   N10        1.0     0.020440     0.599750     0.858920    Uiso  ? N
   N11        1.0     0.924240     0.648580     0.900220    Uiso  ? N
   N12        1.0     0.928480     0.786430     0.724090    Uiso  ? N
   O1         1.0     0.360470     0.063390     0.606880    Uiso  ? O
   O2         1.0     0.733800     0.032130     0.757540    Uiso  ? O
   O3         1.0     0.640060     0.559950     0.892500    Uiso  ? O
   O4         1.0     0.266780     0.535770     0.742870    Uiso  ? O
   O5         1.0     0.639580     0.936610     0.393050    Uiso  ? O
   O6         1.0     0.266250     0.967870     0.242390    Uiso  ? O
   O7         1.0     0.359970     0.440050     0.107560    Uiso  ? O
   O8         1.0     0.733250     0.464230     0.257190    Uiso  ? O
