
#======================================================================
# CRYSTAL DATA
#----------------------------------------------------------------------
data_VESTA_phase_1

_chemical_name_common                  'calf20-ttdc'
_cell_length_a                         16.021000
_cell_length_b                         8.757000
_cell_length_c                         9.665000
_cell_angle_alpha                      90.000000
_cell_angle_beta                       107.790001
_cell_angle_gamma                      90.000000
_cell_volume                           1291.121526
_space_group_name_H-M_alt              'P 1'
_space_group_IT_number                 1

loop_
_space_group_symop_operation_xyz
   'x, y, z'

loop_
   _atom_site_label
   _atom_site_occupancy
   _atom_site_fract_x
   _atom_site_fract_y
   _atom_site_fract_z
   _atom_site_adp_type
   _atom_site_U_iso_or_equiv
   _atom_site_type_symbol
   Zn1        1.0     0.102440     0.041910     0.446380    Uiso  ? Zn
   Zn2        1.0     0.900030     0.539800     0.054660    Uiso  ? Zn
   Zn3        1.0     0.897560     0.957980     0.553630    Uiso  ? Zn
   Zn4        1.0     0.100090     0.460090     0.945360    Uiso  ? Zn
   H1         1.0     0.071090     0.764190     0.221450    Uiso  ? H
   H2         1.0     0.826480     0.719420     0.290560    Uiso  ? H
   H3         1.0     0.368110     0.889230     0.262960    Uiso  ? H
   H4         1.0     0.932410     0.263670     0.283170    Uiso  ? H
   H5         1.0     0.176080     0.222560     0.209610    Uiso  ? H
   H6         1.0     0.630850     0.391230     0.239710    Uiso  ? H
   H7         1.0     0.928990     0.235810     0.778670    Uiso  ? H
   H8         1.0     0.173520     0.280580     0.709450    Uiso  ? H
   H9         1.0     0.631950     0.110650     0.737050    Uiso  ? H
   H10        1.0     0.067570     0.736330     0.716730    Uiso  ? H
   H11        1.0     0.823960     0.777320     0.790300    Uiso  ? H
   H12        1.0     0.369210     0.608770     0.760310    Uiso  ? H
   C1         1.0     0.015870     0.776520     0.262200    Uiso  ? C
   C2         1.0     0.891800     0.756310     0.297520    Uiso  ? C
   C3         1.0     0.510670     0.033120     0.569390    Uiso  ? C
   C4         1.0     0.353300     0.983560     0.459970    Uiso  ? C
   C5         1.0     0.399520     0.938790     0.368360    Uiso  ? C
   C6         1.0     0.741830     0.021010     0.571240    Uiso  ? C
   C7         1.0     0.987040     0.276460     0.240900    Uiso  ? C
   C8         1.0     0.110650     0.258080     0.203420    Uiso  ? C
   C9         1.0     0.489770     0.532830     0.930470    Uiso  ? C
   C10        1.0     0.647650     0.485210     0.044010    Uiso  ? C
   C11        1.0     0.600170     0.440330     0.133870    Uiso  ? C
   C12        1.0     0.256700     0.520380     0.921670    Uiso  ? C
   C13        1.0     0.984190     0.223480     0.737820    Uiso  ? C
   C14        1.0     0.108180     0.243690     0.702390    Uiso  ? C
   C15        1.0     0.489330     0.966770     0.430630    Uiso  ? C
   C16        1.0     0.646760     0.016440     0.540050    Uiso  ? C
   C17        1.0     0.600480     0.061210     0.631650    Uiso  ? C
   C18        1.0     0.258150     0.978990     0.428670    Uiso  ? C
   C19        1.0     0.013020     0.723420     0.759110    Uiso  ? C
   C20        1.0     0.889390     0.741810     0.796490    Uiso  ? C
   C21        1.0     0.510270     0.467170     0.069440    Uiso  ? C
   C22        1.0     0.352410     0.514790     0.956010    Uiso  ? C
   C23        1.0     0.399890     0.559670     0.866150    Uiso  ? C
   C24        1.0     0.743360     0.479620     0.078350    Uiso  ? C
   S1         1.0     0.581240     0.939930     0.377270    Uiso  ? S
   S2         1.0     0.417300     0.439530     0.120070    Uiso  ? S
   S3         1.0     0.418760     0.060070     0.622740    Uiso  ? S
   S4         1.0     0.582740     0.560470     0.879840    Uiso  ? S
   N1         1.0     0.016420     0.872330     0.368470    Uiso  ? N
   N2         1.0     0.936240     0.860230     0.390640    Uiso  ? N
   N3         1.0     0.939120     0.701380     0.214930    Uiso  ? N
   N4         1.0     0.985070     0.371020     0.133000    Uiso  ? N
   N5         1.0     0.064860     0.360170     0.109420    Uiso  ? N
   N6         1.0     0.064500     0.203380     0.287950    Uiso  ? N
   N7         1.0     0.983640     0.127560     0.631540    Uiso  ? N
   N8         1.0     0.063800     0.139660     0.609270    Uiso  ? N
   N9         1.0     0.060940     0.298620     0.785080    Uiso  ? N
   N10        1.0     0.015000     0.628980     0.867010    Uiso  ? N
   N11        1.0     0.935180     0.639830     0.890490    Uiso  ? N
   N12        1.0     0.935540     0.796510     0.711950    Uiso  ? N
   O1         1.0     0.209430     0.935140     0.308270    Uiso  ? O
   O2         1.0     0.228940     0.028210     0.532660    Uiso  ? O
   O3         1.0     0.790370     0.435310     0.199610    Uiso  ? O
   O4         1.0     0.774470     0.527690     0.975570    Uiso  ? O
   O5         1.0     0.790630     0.064860     0.691740    Uiso  ? O
   O6         1.0     0.771120     0.971790     0.467360    Uiso  ? O
   O7         1.0     0.209630     0.564690     0.800400    Uiso  ? O
   O8         1.0     0.225630     0.472310     0.024340    Uiso  ? O
