
#======================================================================
# CRYSTAL DATA
#----------------------------------------------------------------------
data_VESTA_phase_1

_chemical_name_common                  'calf20'
_cell_length_a                         8.913800
_cell_length_b                         9.693500
_cell_length_c                         9.483600
_cell_angle_alpha                      90.000000
_cell_angle_beta                       115.894997
_cell_angle_gamma                      90.000000
_cell_volume                           737.164108
_space_group_name_H-M_alt              'P 1'
_space_group_IT_number                 1

loop_
_space_group_symop_operation_xyz
   'x, y, z'

loop_
   _atom_site_label
   _atom_site_occupancy
   _atom_site_fract_x
   _atom_site_fract_y
   _atom_site_fract_z
   _atom_site_adp_type
   _atom_site_U_iso_or_equiv
   _atom_site_type_symbol
   Zn1        1.0     0.174370     0.055510     0.439050    Uiso  ? Zn
   Zn2        1.0     0.825630     0.944490     0.560950    Uiso  ? Zn
   Zn3        1.0     0.825630     0.555510     0.060950    Uiso  ? Zn
   Zn4        1.0     0.174370     0.444490     0.939050    Uiso  ? Zn
   H1         1.0     0.112320     0.800510     0.206050    Uiso  ? H
   H2         1.0     0.887680     0.199490     0.793950    Uiso  ? H
   H3         1.0     0.887680     0.300510     0.293950    Uiso  ? H
   H4         1.0     0.112320     0.699490     0.706050    Uiso  ? H
   H5         1.0     0.726500     0.689470     0.325810    Uiso  ? H
   H6         1.0     0.273510     0.310530     0.674190    Uiso  ? H
   H7         1.0     0.273510     0.189470     0.174190    Uiso  ? H
   H8         1.0     0.726500     0.810530     0.825810    Uiso  ? H
   C1         1.0     0.027460     0.796420     0.260130    Uiso  ? C
   C2         1.0     0.972540     0.203580     0.739870    Uiso  ? C
   C3         1.0     0.972540     0.296420     0.239870    Uiso  ? C
   C4         1.0     0.027460     0.703580     0.760130    Uiso  ? C
   C5         1.0     0.832360     0.741160     0.321860    Uiso  ? C
   C6         1.0     0.167640     0.258840     0.678140    Uiso  ? C
   C7         1.0     0.167640     0.241160     0.178140    Uiso  ? C
   C8         1.0     0.832360     0.758840     0.821860    Uiso  ? C
   C9         1.0     0.524980     0.030580     0.583560    Uiso  ? C
   C10        1.0     0.475020     0.969420     0.416440    Uiso  ? C
   C11        1.0     0.475020     0.530580     0.916440    Uiso  ? C
   C12        1.0     0.524980     0.469420     0.083560    Uiso  ? C
   N1         1.0     0.035150     0.884130     0.371280    Uiso  ? N
   N2         1.0     0.964850     0.115870     0.628720    Uiso  ? N
   N3         1.0     0.964850     0.384130     0.128720    Uiso  ? N
   N4         1.0     0.035150     0.615870     0.871280    Uiso  ? N
   N5         1.0     0.909370     0.848960     0.410410    Uiso  ? N
   N6         1.0     0.090630     0.151040     0.589590    Uiso  ? N
   N7         1.0     0.090630     0.348960     0.089590    Uiso  ? N
   N8         1.0     0.909370     0.651040     0.910410    Uiso  ? N
   N9         1.0     0.902190     0.704920     0.226050    Uiso  ? N
   N10        1.0     0.097810     0.295080     0.773950    Uiso  ? N
   N11        1.0     0.097810     0.204920     0.273950    Uiso  ? N
   N12        1.0     0.902190     0.795080     0.726050    Uiso  ? N
   O1         1.0     0.407500     0.074050     0.613770    Uiso  ? O
   O2         1.0     0.592500     0.925950     0.386230    Uiso  ? O
   O3         1.0     0.592500     0.574050     0.886230    Uiso  ? O
   O4         1.0     0.407500     0.425950     0.113770    Uiso  ? O
   O5         1.0     0.677620     0.032330     0.677180    Uiso  ? O
   O6         1.0     0.322380     0.967670     0.322820    Uiso  ? O
   O7         1.0     0.322380     0.532330     0.822820    Uiso  ? O
   O8         1.0     0.677620     0.467670     0.177180    Uiso  ? O
