
#======================================================================
# CRYSTAL DATA
#----------------------------------------------------------------------
data_VESTA_phase_1

_chemical_name_common                  'calf20-cub'
_cell_length_a                         13.979000
_cell_length_b                         9.045000
_cell_length_c                         9.843000
_cell_angle_alpha                      90.000000
_cell_angle_beta                       106.699997
_cell_angle_gamma                      90.000000
_cell_volume                           1192.057557
_space_group_name_H-M_alt              'P 1'
_space_group_IT_number                 1

loop_
_space_group_symop_operation_xyz
   'x, y, z'

loop_
   _atom_site_label
   _atom_site_occupancy
   _atom_site_fract_x
   _atom_site_fract_y
   _atom_site_fract_z
   _atom_site_adp_type
   _atom_site_U_iso_or_equiv
   _atom_site_type_symbol
   Zn1        1.0     0.108990     0.055500     0.436470    Uiso  ? Zn
   Zn2        1.0     0.890920     0.555220     0.063320    Uiso  ? Zn
   Zn3        1.0     0.890960     0.944500     0.563440    Uiso  ? Zn
   Zn4        1.0     0.109100     0.444780     0.936590    Uiso  ? Zn
   H1         1.0     0.080940     0.790380     0.210550    Uiso  ? H
   H2         1.0     0.816750     0.700720     0.315130    Uiso  ? H
   H3         1.0     0.554810     0.079710     0.297950    Uiso  ? H
   H4         1.0     0.564300     0.171480     0.697300    Uiso  ? H
   H5         1.0     0.433580     0.245660     0.427780    Uiso  ? H
   H6         1.0     0.918710     0.290110     0.288720    Uiso  ? H
   H7         1.0     0.183220     0.200660     0.184980    Uiso  ? H
   H8         1.0     0.448840     0.570150     0.208000    Uiso  ? H
   H9         1.0     0.435430     0.680820     0.811320    Uiso  ? H
   H10        1.0     0.569540     0.741740     0.081690    Uiso  ? H
   H11        1.0     0.919090     0.209510     0.789470    Uiso  ? H
   H12        1.0     0.183270     0.299280     0.684780    Uiso  ? H
   H13        1.0     0.445130     0.920400     0.701960    Uiso  ? H
   H14        1.0     0.435740     0.828630     0.302720    Uiso  ? H
   H15        1.0     0.566460     0.754340     0.572240    Uiso  ? H
   H16        1.0     0.081330     0.709890     0.711300    Uiso  ? H
   H17        1.0     0.816730     0.799340     0.814930    Uiso  ? H
   H18        1.0     0.551150     0.429850     0.792120    Uiso  ? H
   H19        1.0     0.564560     0.319180     0.188800    Uiso  ? H
   H20        1.0     0.430430     0.258260     0.918330    Uiso  ? H
   C1         1.0     0.021280     0.791160     0.259660    Uiso  ? C
   C2         1.0     0.887340     0.747480     0.313650    Uiso  ? C
   C3         1.0     0.535610     0.863350     0.539250    Uiso  ? C
   C4         1.0     0.464920     0.904480     0.390330    Uiso  ? C
   C5         1.0     0.470670     0.955890     0.612870    Uiso  ? C
   C6         1.0     0.399030     0.995140     0.463520    Uiso  ? C
   C7         1.0     0.711040     0.999120     0.573300    Uiso  ? C
   C8         1.0     0.978610     0.291100     0.240030    Uiso  ? C
   C9         1.0     0.112680     0.247760     0.186360    Uiso  ? C
   C10        1.0     0.462690     0.365400     0.955450    Uiso  ? C
   C11        1.0     0.535210     0.399230     0.104900    Uiso  ? C
   C12        1.0     0.527310     0.461250     0.883980    Uiso  ? C
   C13        1.0     0.600880     0.493090     0.033840    Uiso  ? C
   C14        1.0     0.289140     0.502600     0.930860    Uiso  ? C
   C15        1.0     0.978810     0.208840     0.740250    Uiso  ? C
   C16        1.0     0.112680     0.252520     0.686260    Uiso  ? C
   C17        1.0     0.464410     0.136650     0.460660    Uiso  ? C
   C18        1.0     0.535100     0.095630     0.609580    Uiso  ? C
   C19        1.0     0.529370     0.044110     0.387150    Uiso  ? C
   C20        1.0     0.600990     0.004860     0.536390    Uiso  ? C
   C21        1.0     0.288980     0.000880     0.426610    Uiso  ? C
   C22        1.0     0.021430     0.708900     0.759980    Uiso  ? C
   C23        1.0     0.887270     0.752350     0.813550    Uiso  ? C
   C24        1.0     0.537290     0.634490     0.044670    Uiso  ? C
   C25        1.0     0.464760     0.600770     0.895110    Uiso  ? C
   C26        1.0     0.472670     0.538750     0.116150    Uiso  ? C
   C27        1.0     0.399090     0.506800     0.966180    Uiso  ? C
   C28        1.0     0.710820     0.497400     0.069160    Uiso  ? C
   N1         1.0     0.021530     0.879270     0.367320    Uiso  ? N
   N2         1.0     0.935110     0.851740     0.401580    Uiso  ? N
   N3         1.0     0.938500     0.706580     0.222850    Uiso  ? N
   N4         1.0     0.978430     0.379330     0.132370    Uiso  ? N
   N5         1.0     0.064910     0.351800     0.098430    Uiso  ? N
   N6         1.0     0.061400     0.206740     0.276950    Uiso  ? N
   N7         1.0     0.978490     0.120730     0.632590    Uiso  ? N
   N8         1.0     0.064840     0.148260     0.598330    Uiso  ? N
   N9         1.0     0.061510     0.293420     0.777060    Uiso  ? N
   N10        1.0     0.021590     0.620670     0.867540    Uiso  ? N
   N11        1.0     0.935030     0.648200     0.901480    Uiso  ? N
   N12        1.0     0.938610     0.793260     0.722960    Uiso  ? N
   O1         1.0     0.766360     0.041460     0.690830    Uiso  ? O
   O2         1.0     0.746080     0.942070     0.476040    Uiso  ? O
   O3         1.0     0.233420     0.550030     0.815990    Uiso  ? O
   O4         1.0     0.253920     0.441130     0.025670    Uiso  ? O
   O5         1.0     0.233670     0.958540     0.309190    Uiso  ? O
   O6         1.0     0.253960     0.057930     0.523980    Uiso  ? O
   O7         1.0     0.766620     0.449970     0.184030    Uiso  ? O
   O8         1.0     0.745970     0.558870     0.974350    Uiso  ? O
