
#======================================================================
# CRYSTAL DATA
#----------------------------------------------------------------------
data_VESTA_phase_1

_chemical_name_common                  'calf20-bdc'
_cell_length_a                         14.223000
_cell_length_b                         9.613000
_cell_length_c                         9.607000
_cell_angle_alpha                      90.000000
_cell_angle_beta                       112.949997
_cell_angle_gamma                      90.000000
_cell_volume                           1209.552470
_space_group_name_H-M_alt              'P 1'
_space_group_IT_number                 1

loop_
_space_group_symop_operation_xyz
   'x, y, z'

loop_
   _atom_site_label
   _atom_site_occupancy
   _atom_site_fract_x
   _atom_site_fract_y
   _atom_site_fract_z
   _atom_site_adp_type
   _atom_site_U_iso_or_equiv
   _atom_site_type_symbol
   Zn1        1.0     0.106240     0.059400     0.437800    Uiso  ? Zn
   Zn2        1.0     0.893890     0.559760     0.062400    Uiso  ? Zn
   Zn3        1.0     0.893820     0.940500     0.562140    Uiso  ? Zn
   Zn4        1.0     0.106170     0.440240     0.937540    Uiso  ? Zn
   H1         1.0     0.073830     0.806200     0.209570    Uiso  ? H
   H2         1.0     0.826310     0.693540     0.318090    Uiso  ? H
   H3         1.0     0.378120     0.909290     0.255470    Uiso  ? H
   H4         1.0     0.565070     0.907310     0.314470    Uiso  ? H
   H5         1.0     0.926930     0.307290     0.291980    Uiso  ? H
   H6         1.0     0.172700     0.191720     0.180520    Uiso  ? H
   H7         1.0     0.623090     0.419640     0.248570    Uiso  ? H
   H8         1.0     0.436130     0.414330     0.189570    Uiso  ? H
   H9         1.0     0.926230     0.193700     0.790360    Uiso  ? H
   H10        1.0     0.173750     0.306460     0.681850    Uiso  ? H
   H11        1.0     0.621940     0.090710     0.744470    Uiso  ? H
   H12        1.0     0.434910     0.092690     0.685460    Uiso  ? H
   H13        1.0     0.073120     0.692710     0.707960    Uiso  ? H
   H14        1.0     0.827290     0.808180     0.819410    Uiso  ? H
   H15        1.0     0.376900     0.580360     0.751370    Uiso  ? H
   H16        1.0     0.563920     0.585670     0.810370    Uiso  ? H
   C1         1.0     0.017330     0.802250     0.258520    Uiso  ? C
   C2         1.0     0.891960     0.747220     0.314810    Uiso  ? C
   C3         1.0     0.432210     0.948720     0.362060    Uiso  ? C
   C4         1.0     0.535900     0.947780     0.394840    Uiso  ? C
   C5         1.0     0.604440     0.999170     0.533090    Uiso  ? C
   C6         1.0     0.716290     0.996050     0.571750    Uiso  ? C
   C7         1.0     0.982950     0.302510     0.242240    Uiso  ? C
   C8         1.0     0.107440     0.246020     0.184480    Uiso  ? C
   C9         1.0     0.568480     0.454590     0.140280    Uiso  ? C
   C10        1.0     0.464790     0.451780     0.107500    Uiso  ? C
   C11        1.0     0.395680     0.497240     0.966820    Uiso  ? C
   C12        1.0     0.283890     0.492460     0.928380    Uiso  ? C
   C13        1.0     0.982660     0.197750     0.741420    Uiso  ? C
   C14        1.0     0.108100     0.252780     0.685120    Uiso  ? C
   C15        1.0     0.567780     0.051280     0.637870    Uiso  ? C
   C16        1.0     0.464160     0.052120     0.605090    Uiso  ? C
   C17        1.0     0.395640     0.000830     0.466960    Uiso  ? C
   C18        1.0     0.283800     0.003950     0.428300    Uiso  ? C
   C19        1.0     0.017140     0.697390     0.757810    Uiso  ? C
   C20        1.0     0.892550     0.753980     0.815460    Uiso  ? C
   C21        1.0     0.431610     0.545410     0.859770    Uiso  ? C
   C22        1.0     0.535200     0.548220     0.892440    Uiso  ? C
   C23        1.0     0.604380     0.502760     0.033120    Uiso  ? C
   C24        1.0     0.716100     0.507540     0.071550    Uiso  ? C
   N1         1.0     0.016960     0.891190     0.363640    Uiso  ? N
   N2         1.0     0.935840     0.856130     0.399480    Uiso  ? N
   N3         1.0     0.940360     0.709980     0.224720    Uiso  ? N
   N4         1.0     0.983220     0.391240     0.136780    Uiso  ? N
   N5         1.0     0.063720     0.355140     0.099930    Uiso  ? N
   N6         1.0     0.059450     0.209610     0.275360    Uiso  ? N
   N7         1.0     0.983030     0.108710     0.636290    Uiso  ? N
   N8         1.0     0.064150     0.143870     0.600460    Uiso  ? N
   N9         1.0     0.059690     0.290020     0.775220    Uiso  ? N
   N10        1.0     0.016830     0.608760     0.863160    Uiso  ? N
   N11        1.0     0.936260     0.644860     0.900010    Uiso  ? N
   N12        1.0     0.940540     0.790280     0.724580    Uiso  ? N
   O1         1.0     0.778060     0.033180     0.699480    Uiso  ? O
   O2         1.0     0.745130     0.949960     0.467410    Uiso  ? O
   O3         1.0     0.221690     0.525540     0.799520    Uiso  ? O
   O4         1.0     0.254990     0.449700     0.033570    Uiso  ? O
   O5         1.0     0.221930     0.966820     0.300460    Uiso  ? O
   O6         1.0     0.254860     0.050040     0.532520    Uiso  ? O
   O7         1.0     0.778330     0.474460     0.200530    Uiso  ? O
   O8         1.0     0.745060     0.550300     0.966360    Uiso  ? O
