
#======================================================================
# CRYSTAL DATA
#----------------------------------------------------------------------
data_VESTA_phase_1

_chemical_name_common                  'calf20-fum'
_cell_length_a                         12.458000
_cell_length_b                         9.756000
_cell_length_c                         9.588000
_cell_angle_alpha                      90.000000
_cell_angle_beta                       119.760002
_cell_angle_gamma                      90.000000
_cell_volume                           1011.635339
_space_group_name_H-M_alt              'P 1'
_space_group_IT_number                 1

loop_
_space_group_symop_operation_xyz
   'x, y, z'

loop_
   _atom_site_label
   _atom_site_occupancy
   _atom_site_fract_x
   _atom_site_fract_y
   _atom_site_fract_z
   _atom_site_adp_type
   _atom_site_U_iso_or_equiv
   _atom_site_type_symbol
   Zn1        1.0     0.123950     0.060370     0.454740    Uiso  ? Zn
   Zn2        1.0     0.876230     0.560580     0.045410    Uiso  ? Zn
   Zn3        1.0     0.876090     0.939730     0.545330    Uiso  ? Zn
   Zn4        1.0     0.123800     0.439520     0.954650    Uiso  ? Zn
   H1         1.0     0.088190     0.811710     0.220340    Uiso  ? H
   H2         1.0     0.799950     0.685010     0.295790    Uiso  ? H
   H3         1.0     0.533550     0.034850     0.672800    Uiso  ? H
   H4         1.0     0.911620     0.310990     0.279450    Uiso  ? H
   H5         1.0     0.200790     0.185940     0.204960    Uiso  ? H
   H6         1.0     0.466490     0.545920     0.830300    Uiso  ? H
   H7         1.0     0.911810     0.188290     0.779600    Uiso  ? H
   H8         1.0     0.200050     0.315090     0.704150    Uiso  ? H
   H9         1.0     0.466440     0.965150     0.327150    Uiso  ? H
   H10        1.0     0.088370     0.689010     0.720490    Uiso  ? H
   H11        1.0     0.799250     0.814060     0.795100    Uiso  ? H
   H12        1.0     0.533500     0.454080     0.169640    Uiso  ? H
   C1         1.0     0.022180     0.804220     0.261670    Uiso  ? C
   C2         1.0     0.876330     0.741700     0.301800    Uiso  ? C
   C3         1.0     0.340250     0.009640     0.482610    Uiso  ? C
   C4         1.0     0.475240     0.011170     0.546650    Uiso  ? C
   C5         1.0     0.977800     0.303920     0.238360    Uiso  ? C
   C6         1.0     0.124070     0.242210     0.198720    Uiso  ? C
   C7         1.0     0.659710     0.513740     0.017780    Uiso  ? C
   C8         1.0     0.524820     0.515580     0.954410    Uiso  ? C
   C9         1.0     0.977940     0.195880     0.738390    Uiso  ? C
   C10        1.0     0.123710     0.258300     0.698270    Uiso  ? C
   C11        1.0     0.659790     0.990360     0.517450    Uiso  ? C
   C12        1.0     0.524790     0.988830     0.453420    Uiso  ? C
   C13        1.0     0.022240     0.696190     0.761700    Uiso  ? C
   C14        1.0     0.875920     0.757790     0.801230    Uiso  ? C
   C15        1.0     0.340330     0.486260     0.982280    Uiso  ? C
   C16        1.0     0.475220     0.484420     0.045650    Uiso  ? C
   N1         1.0     0.020670     0.891450     0.366550    Uiso  ? N
   N2         1.0     0.926700     0.851370     0.392260    Uiso  ? N
   N3         1.0     0.933190     0.708590     0.217820    Uiso  ? N
   N4         1.0     0.978980     0.391250     0.133240    Uiso  ? N
   N5         1.0     0.073240     0.351680     0.107890    Uiso  ? N
   N6         1.0     0.067250     0.208790     0.282570    Uiso  ? N
   N7         1.0     0.979320     0.108550     0.633390    Uiso  ? N
   N8         1.0     0.073340     0.148630     0.607800    Uiso  ? N
   N9         1.0     0.066890     0.291410     0.782130    Uiso  ? N
   N10        1.0     0.021060     0.608860     0.866830    Uiso  ? N
   N11        1.0     0.926750     0.648420     0.892060    Uiso  ? N
   N12        1.0     0.932740     0.791310     0.717370    Uiso  ? N
   O1         1.0     0.266000     0.974990     0.341200    Uiso  ? O
   O2         1.0     0.694920     0.949570     0.417370    Uiso  ? O
   O3         1.0     0.733770     0.475190     0.157870    Uiso  ? O
   O4         1.0     0.305150     0.441980     0.081220    Uiso  ? O
   O5         1.0     0.734040     0.025010     0.658860    Uiso  ? O
   O6         1.0     0.305070     0.050430     0.582570    Uiso  ? O
   O7         1.0     0.266270     0.524810     0.842200    Uiso  ? O
   O8         1.0     0.694890     0.558020     0.918850    Uiso  ? O
