
#======================================================================
# CRYSTAL DATA
#----------------------------------------------------------------------
data_VESTA_phase_1

_chemical_name_common                  'CAU-10-NH2-opt'
_cell_length_a                         21.552259
_cell_length_b                         21.552889
_cell_length_c                         9.666785
_cell_angle_alpha                      90.001564
_cell_angle_beta                       90.198433
_cell_angle_gamma                      89.894386
_cell_volume                           4490.317229
_space_group_name_H-M_alt              'P 1'
_space_group_IT_number                 1

loop_
_space_group_symop_operation_xyz
   'x, y, z'

loop_
   _atom_site_label
   _atom_site_occupancy
   _atom_site_fract_x
   _atom_site_fract_y
   _atom_site_fract_z
   _atom_site_adp_type
   _atom_site_U_iso_or_equiv
   _atom_site_type_symbol
   Al1        1.0     0.323575     0.749519     0.627657    Uiso  ? Al
   Al2        1.0     0.174106     0.750285     0.126555    Uiso  ? Al
   Al3        1.0     0.248517     0.824770     0.875983    Uiso  ? Al
   Al4        1.0     0.249514     0.675373     0.375885    Uiso  ? Al
   Al5        1.0     0.674884     0.750226     0.629681    Uiso  ? Al
   Al6        1.0     0.824214     0.749608     0.131270    Uiso  ? Al
   Al7        1.0     0.749972     0.675034     0.381221    Uiso  ? Al
   Al8        1.0     0.748357     0.824385     0.882427    Uiso  ? Al
   Al9        1.0     0.823405     0.250030     0.130705    Uiso  ? Al
   Al10       1.0     0.674015     0.249788     0.629342    Uiso  ? Al
   Al11       1.0     0.749374     0.324728     0.381184    Uiso  ? Al
   Al12       1.0     0.748002     0.175430     0.881385    Uiso  ? Al
   Al13       1.0     0.174332     0.249977     0.124524    Uiso  ? Al
   Al14       1.0     0.323913     0.249750     0.625849    Uiso  ? Al
   Al15       1.0     0.248826     0.175079     0.874625    Uiso  ? Al
   Al16       1.0     0.249287     0.324364     0.374918    Uiso  ? Al
   H1         1.0     0.399224     0.665646     0.116824    Uiso  ? H
   H2         1.0     0.034128     0.854263     0.407414    Uiso  ? H
   H3         1.0     0.223055     0.751455     0.695192    Uiso  ? H
   H4         1.0     0.499749     0.723504     0.480076    Uiso  ? H
   H5         1.0     0.096546     0.837516     0.615564    Uiso  ? H
   H6         1.0     0.538677     0.652339     0.905012    Uiso  ? H
   H7         1.0     0.274648     0.748959     0.195850    Uiso  ? H
   H8         1.0     0.999555     0.775796     0.978792    Uiso  ? H
   H9         1.0     0.149809     0.539832     0.651901    Uiso  ? H
   H10        1.0     0.333946     0.899040     0.365536    Uiso  ? H
   H11        1.0     0.150951     0.461481     0.651022    Uiso  ? H
   H12        1.0     0.247155     0.724491     0.946076    Uiso  ? H
   H13        1.0     0.275946     0.999846     0.727230    Uiso  ? H
   H14        1.0     0.348760     0.960245     0.152931    Uiso  ? H
   H15        1.0     0.163210     0.600573     0.865168    Uiso  ? H
   H16        1.0     0.250704     0.775567     0.446345    Uiso  ? H
   H17        1.0     0.222652     0.499889     0.226905    Uiso  ? H
   H18        1.0     0.101847     0.661218     0.632274    Uiso  ? H
   H19        1.0     0.538105     0.858178     0.343198    Uiso  ? H
   H20        1.0     0.999010     0.720745     0.273595    Uiso  ? H
   H21        1.0     0.963455     0.645299     0.847292    Uiso  ? H
   H22        1.0     0.398252     0.841381     0.130900    Uiso  ? H
   H23        1.0     0.041879     0.646104     0.846291    Uiso  ? H
   H24        1.0     0.498564     0.779007     0.772313    Uiso  ? H
   H25        1.0     0.354275     0.538199     0.093291    Uiso  ? H
   H26        1.0     0.158873     0.900280     0.380569    Uiso  ? H
   H27        1.0     0.219477     0.999941     0.019839    Uiso  ? H
   H28        1.0     0.338969     0.599625     0.881184    Uiso  ? H
   H29        1.0     0.146819     0.961443     0.593294    Uiso  ? H
   H30        1.0     0.278632     0.499851     0.519374    Uiso  ? H
   H31        1.0     0.598827     0.841008     0.132222    Uiso  ? H
   H32        1.0     0.749274     0.775130     0.452718    Uiso  ? H
   H33        1.0     0.459581     0.858021     0.343402    Uiso  ? H
   H34        1.0     0.901203     0.659252     0.635836    Uiso  ? H
   H35        1.0     0.750663     0.723861     0.950745    Uiso  ? H
   H36        1.0     0.660110     0.600397     0.885416    Uiso  ? H
   H37        1.0     0.910731     0.961625     0.544199    Uiso  ? H
   H38        1.0     0.724229     0.748871     0.202088    Uiso  ? H
   H39        1.0     0.719564     0.499929     0.524552    Uiso  ? H
   H40        1.0     0.645450     0.539356     0.097389    Uiso  ? H
   H41        1.0     0.855444     0.899821     0.368792    Uiso  ? H
   H42        1.0     0.645613     0.460989     0.097705    Uiso  ? H
   H43        1.0     0.774657     0.750869     0.702751    Uiso  ? H
   H44        1.0     0.774413     0.999845     0.027543    Uiso  ? H
   H45        1.0     0.460405     0.653064     0.904087    Uiso  ? H
   H46        1.0     0.895937     0.835405     0.621579    Uiso  ? H
   H47        1.0     0.957093     0.843935     0.404646    Uiso  ? H
   H48        1.0     0.599752     0.664535     0.118289    Uiso  ? H
   H49        1.0     0.835548     0.599969     0.870357    Uiso  ? H
   H50        1.0     0.655811     0.960980     0.152610    Uiso  ? H
   H51        1.0     0.775865     0.499989     0.231545    Uiso  ? H
   H52        1.0     0.847733     0.538721     0.657133    Uiso  ? H
   H53        1.0     0.668405     0.899426     0.366374    Uiso  ? H
   H54        1.0     0.725698     0.000025     0.729628    Uiso  ? H
   H55        1.0     0.538545     0.350106     0.904576    Uiso  ? H
   H56        1.0     0.895863     0.164294     0.621405    Uiso  ? H
   H57        1.0     0.723444     0.251452     0.201181    Uiso  ? H
   H58        1.0     0.999399     0.223589     0.978829    Uiso  ? H
   H59        1.0     0.599499     0.336649     0.118021    Uiso  ? H
   H60        1.0     0.034397     0.144463     0.407972    Uiso  ? H
   H61        1.0     0.773919     0.248952     0.701686    Uiso  ? H
   H62        1.0     0.499324     0.276151     0.477890    Uiso  ? H
   H63        1.0     0.654132     0.039210     0.154057    Uiso  ? H
   H64        1.0     0.833872     0.399362     0.869753    Uiso  ? H
   H65        1.0     0.748063     0.224337     0.451661    Uiso  ? H
   H66        1.0     0.847304     0.460459     0.657061    Uiso  ? H
   H67        1.0     0.665649     0.099895     0.367173    Uiso  ? H
   H68        1.0     0.749488     0.275895     0.950501    Uiso  ? H
   H69        1.0     0.962913     0.354449     0.845646    Uiso  ? H
   H70        1.0     0.598863     0.160850     0.133849    Uiso  ? H
   H71        1.0     0.498275     0.220847     0.772484    Uiso  ? H
   H72        1.0     0.538211     0.146321     0.345475    Uiso  ? H
   H73        1.0     0.900740     0.339876     0.634755    Uiso  ? H
   H74        1.0     0.459875     0.146439     0.346067    Uiso  ? H
   H75        1.0     0.998651     0.278896     0.271840    Uiso  ? H
   H76        1.0     0.909473     0.040017     0.543852    Uiso  ? H
   H77        1.0     0.658780     0.399746     0.884452    Uiso  ? H
   H78        1.0     0.853457     0.100296     0.369783    Uiso  ? H
   H79        1.0     0.101321     0.338701     0.630415    Uiso  ? H
   H80        1.0     0.247262     0.275472     0.943710    Uiso  ? H
   H81        1.0     0.041382     0.353504     0.844713    Uiso  ? H
   H82        1.0     0.398231     0.160125     0.132373    Uiso  ? H
   H83        1.0     0.251387     0.223957     0.443414    Uiso  ? H
   H84        1.0     0.354469     0.459749     0.092701    Uiso  ? H
   H85        1.0     0.161775     0.100915     0.381354    Uiso  ? H
   H86        1.0     0.223260     0.247934     0.692523    Uiso  ? H
   H87        1.0     0.149697     0.039421     0.594471    Uiso  ? H
   H88        1.0     0.339555     0.399037     0.879635    Uiso  ? H
   H89        1.0     0.274829     0.251444     0.194024    Uiso  ? H
   H90        1.0     0.957441     0.155588     0.404027    Uiso  ? H
   H91        1.0     0.398919     0.335274     0.115382    Uiso  ? H
   H92        1.0     0.460207     0.349919     0.903477    Uiso  ? H
   H93        1.0     0.096446     0.161617     0.615531    Uiso  ? H
   H94        1.0     0.336375     0.099599     0.366350    Uiso  ? H
   H95        1.0     0.350068     0.038655     0.153724    Uiso  ? H
   H96        1.0     0.164291     0.400036     0.863577    Uiso  ? H
   C1         1.0     0.442623     0.832391     0.080784    Uiso  ? C
   C2         1.0     0.442804     0.809722     0.945170    Uiso  ? C
   C3         1.0     0.383315     0.799840     0.870236    Uiso  ? C
   C4         1.0     0.498526     0.796897     0.877455    Uiso  ? C
   C5         1.0     0.498544     0.842467     0.153002    Uiso  ? C
   C6         1.0     0.057092     0.669549     0.582561    Uiso  ? C
   C7         1.0     0.055931     0.691377     0.446296    Uiso  ? C
   C8         1.0     0.114867     0.700775     0.369705    Uiso  ? C
   C9         1.0     0.999749     0.703438     0.379193    Uiso  ? C
   C10        1.0     0.001649     0.659389     0.655752    Uiso  ? C
   C11        1.0     0.167998     0.944581     0.330065    Uiso  ? C
   C12        1.0     0.189579     0.944524     0.193706    Uiso  ? C
   C13        1.0     0.198825     0.884956     0.118711    Uiso  ? C
   C14        1.0     0.202380     0.000123     0.125494    Uiso  ? C
   C15        1.0     0.159517     0.000599     0.402537    Uiso  ? C
   C16        1.0     0.330322     0.555306     0.830235    Uiso  ? C
   C17        1.0     0.308429     0.555304     0.693823    Uiso  ? C
   C18        1.0     0.298865     0.614912     0.619236    Uiso  ? C
   C19        1.0     0.296071     0.499678     0.625032    Uiso  ? C
   C20        1.0     0.340236     0.499274     0.902005    Uiso  ? C
   C21        1.0     0.052680     0.828315     0.667600    Uiso  ? C
   C22        1.0     0.053707     0.806319     0.803896    Uiso  ? C
   C23        1.0     0.113595     0.797386     0.878554    Uiso  ? C
   C24        1.0     0.998594     0.793124     0.873254    Uiso  ? C
   C25        1.0     0.996084     0.837087     0.597248    Uiso  ? C
   C26        1.0     0.443608     0.673892     0.168143    Uiso  ? C
   C27        1.0     0.443848     0.694793     0.305192    Uiso  ? C
   C28        1.0     0.384305     0.703184     0.380584    Uiso  ? C
   C29        1.0     0.499667     0.706760     0.374010    Uiso  ? C
   C30        1.0     0.499494     0.664519     0.096020    Uiso  ? C
   C31        1.0     0.325918     0.943481     0.416469    Uiso  ? C
   C32        1.0     0.304583     0.943855     0.552992    Uiso  ? C
   C33        1.0     0.295457     0.884513     0.628860    Uiso  ? C
   C34        1.0     0.292831     0.999687     0.621405    Uiso  ? C
   C35        1.0     0.336002     0.999336     0.344419    Uiso  ? C
   C36        1.0     0.171982     0.556190     0.915846    Uiso  ? C
   C37        1.0     0.193347     0.555881     0.052694    Uiso  ? C
   C38        1.0     0.202038     0.615296     0.128775    Uiso  ? C
   C39        1.0     0.205740     0.500052     0.120845    Uiso  ? C
   C40        1.0     0.162996     0.500354     0.842861    Uiso  ? C
   C41        1.0     0.555463     0.673348     0.168947    Uiso  ? C
   C42        1.0     0.555402     0.694532     0.305744    Uiso  ? C
   C43        1.0     0.614987     0.703203     0.381704    Uiso  ? C
   C44        1.0     0.940805     0.826674     0.670521    Uiso  ? C
   C45        1.0     0.942258     0.804848     0.806661    Uiso  ? C
   C46        1.0     0.883393     0.795814     0.884051    Uiso  ? C
   C47        1.0     0.826510     0.555665     0.920955    Uiso  ? C
   C48        1.0     0.805163     0.555568     0.057507    Uiso  ? C
   C49        1.0     0.796718     0.614898     0.133878    Uiso  ? C
   C50        1.0     0.792670     0.499905     0.125697    Uiso  ? C
   C51        1.0     0.835300     0.499667     0.848417    Uiso  ? C
   C52        1.0     0.676681     0.943820     0.417355    Uiso  ? C
   C53        1.0     0.697153     0.944106     0.554941    Uiso  ? C
   C54        1.0     0.704006     0.884717     0.632383    Uiso  ? C
   C55        1.0     0.708914     0.999949     0.623492    Uiso  ? C
   C56        1.0     0.667068     0.999716     0.344919    Uiso  ? C
   C57        1.0     0.945223     0.668489     0.584539    Uiso  ? C
   C58        1.0     0.944503     0.690477     0.448461    Uiso  ? C
   C59        1.0     0.884660     0.699860     0.374223    Uiso  ? C
   C60        1.0     0.554438     0.832114     0.081546    Uiso  ? C
   C61        1.0     0.554260     0.809551     0.945855    Uiso  ? C
   C62        1.0     0.613914     0.799775     0.871902    Uiso  ? C
   C63        1.0     0.668386     0.555987     0.834516    Uiso  ? C
   C64        1.0     0.690031     0.555735     0.698268    Uiso  ? C
   C65        1.0     0.699667     0.615192     0.623218    Uiso  ? C
   C66        1.0     0.702184     0.499949     0.629960    Uiso  ? C
   C67        1.0     0.658535     0.500064     0.906457    Uiso  ? C
   C68        1.0     0.843474     0.944173     0.321510    Uiso  ? C
   C69        1.0     0.813128     0.944232     0.193302    Uiso  ? C
   C70        1.0     0.800285     0.884515     0.122037    Uiso  ? C
   C71        1.0     0.796856     0.999861     0.128406    Uiso  ? C
   C72        1.0     0.858635     0.000095     0.388582    Uiso  ? C
   C73        1.0     0.944773     0.330838     0.583210    Uiso  ? C
   C74        1.0     0.944091     0.308907     0.447079    Uiso  ? C
   C75        1.0     0.884141     0.299471     0.373410    Uiso  ? C
   C76        1.0     0.999377     0.296197     0.377468    Uiso  ? C
   C77        1.0     0.001166     0.340132     0.654209    Uiso  ? C
   C78        1.0     0.554432     0.169404     0.082911    Uiso  ? C
   C79        1.0     0.554114     0.191198     0.946651    Uiso  ? C
   C80        1.0     0.613547     0.200664     0.872071    Uiso  ? C
   C81        1.0     0.498365     0.203462     0.877992    Uiso  ? C
   C82        1.0     0.498569     0.159560     0.154697    Uiso  ? C
   C83        1.0     0.667708     0.444104     0.834048    Uiso  ? C
   C84        1.0     0.689545     0.444235     0.697942    Uiso  ? C
   C85        1.0     0.699046     0.384725     0.622913    Uiso  ? C
   C86        1.0     0.842414     0.055862     0.321897    Uiso  ? C
   C87        1.0     0.812375     0.055611     0.193404    Uiso  ? C
   C88        1.0     0.799465     0.115279     0.121761    Uiso  ? C
   C89        1.0     0.555176     0.327599     0.168207    Uiso  ? C
   C90        1.0     0.555035     0.305898     0.304570    Uiso  ? C
   C91        1.0     0.614416     0.297155     0.381247    Uiso  ? C
   C92        1.0     0.499296     0.293257     0.372138    Uiso  ? C
   C93        1.0     0.499236     0.336742     0.095167    Uiso  ? C
   C94        1.0     0.940730     0.172813     0.670403    Uiso  ? C
   C95        1.0     0.942098     0.194585     0.806655    Uiso  ? C
   C96        1.0     0.883053     0.203645     0.883799    Uiso  ? C
   C97        1.0     0.998465     0.206240     0.873246    Uiso  ? C
   C98        1.0     0.996019     0.162233     0.597141    Uiso  ? C
   C99        1.0     0.825651     0.443782     0.920656    Uiso  ? C
   C100       1.0     0.804521     0.444116     0.057342    Uiso  ? C
   C101       1.0     0.795871     0.384835     0.133621    Uiso  ? C
   C102       1.0     0.675272     0.055679     0.417825    Uiso  ? C
   C103       1.0     0.696138     0.055659     0.555067    Uiso  ? C
   C104       1.0     0.702861     0.115117     0.632146    Uiso  ? C
   C105       1.0     0.052578     0.170932     0.667517    Uiso  ? C
   C106       1.0     0.053633     0.193012     0.803736    Uiso  ? C
   C107       1.0     0.113672     0.202221     0.877696    Uiso  ? C
   C108       1.0     0.443304     0.326888     0.166692    Uiso  ? C
   C109       1.0     0.443528     0.305304     0.303201    Uiso  ? C
   C110       1.0     0.384134     0.296378     0.378525    Uiso  ? C
   C111       1.0     0.327164     0.055336     0.416897    Uiso  ? C
   C112       1.0     0.305493     0.055321     0.553138    Uiso  ? C
   C113       1.0     0.296487     0.114848     0.628484    Uiso  ? C
   C114       1.0     0.172553     0.444341     0.914939    Uiso  ? C
   C115       1.0     0.193698     0.444373     0.051918    Uiso  ? C
   C116       1.0     0.202306     0.384802     0.127507    Uiso  ? C
   C117       1.0     0.442580     0.168944     0.082070    Uiso  ? C
   C118       1.0     0.442719     0.190837     0.945816    Uiso  ? C
   C119       1.0     0.383395     0.200187     0.869849    Uiso  ? C
   C120       1.0     0.056622     0.330169     0.580765    Uiso  ? C
   C121       1.0     0.055567     0.308431     0.444369    Uiso  ? C
   C122       1.0     0.114653     0.299297     0.367835    Uiso  ? C
   C123       1.0     0.169575     0.056414     0.330478    Uiso  ? C
   C124       1.0     0.190692     0.055975     0.193805    Uiso  ? C
   C125       1.0     0.199865     0.115301     0.118083    Uiso  ? C
   C126       1.0     0.330652     0.443475     0.829324    Uiso  ? C
   C127       1.0     0.308621     0.443865     0.693019    Uiso  ? C
   C128       1.0     0.299009     0.384452     0.617934    Uiso  ? C
   N1         1.0     0.498692     0.864232     0.287195    Uiso  ? N
   N2         1.0     0.002522     0.638809     0.790911    Uiso  ? N
   N3         1.0     0.139408     0.000933     0.538403    Uiso  ? N
   N4         1.0     0.361088     0.499063     0.037112    Uiso  ? N
   N5         1.0     0.994045     0.858485     0.461662    Uiso  ? N
   N6         1.0     0.499438     0.644705     0.960104    Uiso  ? N
   N7         1.0     0.356369     0.999205     0.209250    Uiso  ? N
   N8         1.0     0.142887     0.500437     0.707107    Uiso  ? N
   N9         1.0     0.855410     0.499528     0.712819    Uiso  ? N
   N10        1.0     0.647017     0.999729     0.208900    Uiso  ? N
   N11        1.0     0.638172     0.500126     0.041740    Uiso  ? N
   N12        1.0     0.886992     0.000461     0.516905    Uiso  ? N
   N13        1.0     0.001994     0.360795     0.789305    Uiso  ? N
   N14        1.0     0.498870     0.139001     0.289975    Uiso  ? N
   N15        1.0     0.499274     0.357286     0.959877    Uiso  ? N
   N16        1.0     0.994135     0.140746     0.461644    Uiso  ? N
   O1         1.0     0.384413     0.763775     0.764810    Uiso  ? O
   O2         1.0     0.335630     0.828146     0.915755    Uiso  ? O
   O3         1.0     0.259026     0.758525     0.754224    Uiso  ? O
   O4         1.0     0.113252     0.736359     0.263433    Uiso  ? O
   O5         1.0     0.162536     0.672238     0.414934    Uiso  ? O
   O6         1.0     0.238644     0.741627     0.254074    Uiso  ? O
   O7         1.0     0.234109     0.885987     0.012272    Uiso  ? O
   O8         1.0     0.170833     0.837480     0.165555    Uiso  ? O
   O9         1.0     0.239883     0.760704     0.004019    Uiso  ? O
   O10        1.0     0.263765     0.613926     0.511914    Uiso  ? O
   O11        1.0     0.326538     0.662486     0.667114    Uiso  ? O
   O12        1.0     0.257822     0.739294     0.504253    Uiso  ? O
   O13        1.0     0.112752     0.763021     0.986520    Uiso  ? O
   O14        1.0     0.161011     0.825080     0.829433    Uiso  ? O
   O15        1.0     0.385312     0.736890     0.489590    Uiso  ? O
   O16        1.0     0.336781     0.675572     0.330719    Uiso  ? O
   O17        1.0     0.260719     0.885899     0.736033    Uiso  ? O
   O18        1.0     0.323534     0.836878     0.581362    Uiso  ? O
   O19        1.0     0.236875     0.614143     0.236248    Uiso  ? O
   O20        1.0     0.173702     0.662847     0.080882    Uiso  ? O
   O21        1.0     0.613882     0.737760     0.489324    Uiso  ? O
   O22        1.0     0.662550     0.675141     0.333706    Uiso  ? O
   O23        1.0     0.741622     0.738742     0.509772    Uiso  ? O
   O24        1.0     0.885425     0.761091     0.991334    Uiso  ? O
   O25        1.0     0.835693     0.824116     0.837410    Uiso  ? O
   O26        1.0     0.757730     0.759815     0.009615    Uiso  ? O
   O27        1.0     0.762434     0.613728     0.241712    Uiso  ? O
   O28        1.0     0.824781     0.662346     0.085960    Uiso  ? O
   O29        1.0     0.760570     0.741352     0.259810    Uiso  ? O
   O30        1.0     0.735838     0.885777     0.744149    Uiso  ? O
   O31        1.0     0.676445     0.837256     0.581832    Uiso  ? O
   O32        1.0     0.738239     0.758253     0.759728    Uiso  ? O
   O33        1.0     0.885446     0.735765     0.268478    Uiso  ? O
   O34        1.0     0.837377     0.671438     0.420505    Uiso  ? O
   O35        1.0     0.612960     0.765146     0.764055    Uiso  ? O
   O36        1.0     0.661499     0.826894     0.921284    Uiso  ? O
   O37        1.0     0.735479     0.613876     0.517520    Uiso  ? O
   O38        1.0     0.671361     0.662814     0.668953    Uiso  ? O
   O39        1.0     0.762467     0.885379     0.019435    Uiso  ? O
   O40        1.0     0.828441     0.836626     0.167518    Uiso  ? O
   O41        1.0     0.884837     0.263714     0.267456    Uiso  ? O
   O42        1.0     0.836790     0.327743     0.420457    Uiso  ? O
   O43        1.0     0.759742     0.258694     0.259118    Uiso  ? O
   O44        1.0     0.612421     0.235521     0.764586    Uiso  ? O
   O45        1.0     0.661123     0.173019     0.920380    Uiso  ? O
   O46        1.0     0.737604     0.241683     0.758978    Uiso  ? O
   O47        1.0     0.735221     0.385781     0.517836    Uiso  ? O
   O48        1.0     0.670440     0.337289     0.668130    Uiso  ? O
   O49        1.0     0.740606     0.260723     0.508936    Uiso  ? O
   O50        1.0     0.762117     0.114359     0.018342    Uiso  ? O
   O51        1.0     0.827333     0.163145     0.167768    Uiso  ? O
   O52        1.0     0.756979     0.239867     0.008963    Uiso  ? O
   O53        1.0     0.613093     0.262444     0.488647    Uiso  ? O
   O54        1.0     0.661963     0.325339     0.334146    Uiso  ? O
   O55        1.0     0.884895     0.238186     0.991408    Uiso  ? O
   O56        1.0     0.835392     0.175601     0.836536    Uiso  ? O
   O57        1.0     0.761870     0.386211     0.241908    Uiso  ? O
   O58        1.0     0.823661     0.337209     0.085221    Uiso  ? O
   O59        1.0     0.735375     0.114200     0.742952    Uiso  ? O
   O60        1.0     0.674860     0.162552     0.582189    Uiso  ? O
   O61        1.0     0.112908     0.237020     0.985007    Uiso  ? O
   O62        1.0     0.161168     0.174455     0.828560    Uiso  ? O
   O63        1.0     0.240123     0.239384     0.002030    Uiso  ? O
   O64        1.0     0.385361     0.262111     0.486712    Uiso  ? O
   O65        1.0     0.336487     0.324218     0.329518    Uiso  ? O
   O66        1.0     0.258162     0.259975     0.502242    Uiso  ? O
   O67        1.0     0.261453     0.113780     0.735203    Uiso  ? O
   O68        1.0     0.324626     0.162312     0.580823    Uiso  ? O
   O69        1.0     0.259132     0.241042     0.752073    Uiso  ? O
   O70        1.0     0.236641     0.385820     0.235793    Uiso  ? O
   O71        1.0     0.174283     0.337355     0.078608    Uiso  ? O
   O72        1.0     0.238748     0.258509     0.252248    Uiso  ? O
   O73        1.0     0.384565     0.235880     0.763781    Uiso  ? O
   O74        1.0     0.335837     0.171786     0.915029    Uiso  ? O
   O75        1.0     0.113190     0.264272     0.260662    Uiso  ? O
   O76        1.0     0.162298     0.327426     0.414105    Uiso  ? O
   O77        1.0     0.234931     0.113990     0.011312    Uiso  ? O
   O78        1.0     0.171664     0.162863     0.164381    Uiso  ? O
   O79        1.0     0.263440     0.385576     0.511377    Uiso  ? O
   O80        1.0     0.327038     0.336797     0.664814    Uiso  ? O
