
#======================================================================
# CRYSTAL DATA
#----------------------------------------------------------------------
data_VESTA_phase_1

_chemical_name_common                  'CAU-10-H'
_cell_length_a                         21.554001
_cell_length_b                         21.554001
_cell_length_c                         10.375000
_cell_angle_alpha                      90.000000
_cell_angle_beta                       90.000000
_cell_angle_gamma                      90.000000
_cell_volume                           4819.965136
_space_group_name_H-M_alt              'P 1'
_space_group_IT_number                 1

loop_
_space_group_symop_operation_xyz
   'x, y, z'

loop_
   _atom_site_label
   _atom_site_occupancy
   _atom_site_fract_x
   _atom_site_fract_y
   _atom_site_fract_z
   _atom_site_adp_type
   _atom_site_U_iso_or_equiv
   _atom_site_type_symbol
   Al1        1.0     0.247100     0.323200     0.387700    Uiso  ? Al
   Al2        1.0     0.252900     0.176700     0.887800    Uiso  ? Al
   Al3        1.0     0.676700     0.747100     0.637800    Uiso  ? Al
   Al4        1.0     0.823300     0.752900     0.137800    Uiso  ? Al
   Al5        1.0     0.752900     0.176700     0.862200    Uiso  ? Al
   Al6        1.0     0.747100     0.323200     0.362300    Uiso  ? Al
   Al7        1.0     0.323200     0.752900     0.612200    Uiso  ? Al
   Al8        1.0     0.176700     0.747100     0.112300    Uiso  ? Al
   Al9        1.0     0.747100     0.823300     0.887800    Uiso  ? Al
   Al10       1.0     0.752900     0.676700     0.387700    Uiso  ? Al
   Al11       1.0     0.176700     0.247100     0.137800    Uiso  ? Al
   Al12       1.0     0.323200     0.252900     0.637800    Uiso  ? Al
   Al13       1.0     0.252900     0.676700     0.362300    Uiso  ? Al
   Al14       1.0     0.247100     0.823300     0.862200    Uiso  ? Al
   Al15       1.0     0.823300     0.252900     0.112200    Uiso  ? Al
   Al16       1.0     0.676700     0.247100     0.612200    Uiso  ? Al
   H1         1.0     0.350600     0.508400     0.974900    Uiso  ? H
   H2         1.0     0.149400     0.991600     0.474900    Uiso  ? H
   H3         1.0     0.491600     0.850600     0.224900    Uiso  ? H
   H4         1.0     0.008400     0.649400     0.724900    Uiso  ? H
   H5         1.0     0.649400     0.991600     0.275100    Uiso  ? H
   H6         1.0     0.850600     0.508400     0.775100    Uiso  ? H
   H7         1.0     0.508400     0.649400     0.025100    Uiso  ? H
   H8         1.0     0.991600     0.850600     0.525100    Uiso  ? H
   H9         1.0     0.850600     0.008400     0.474900    Uiso  ? H
   H10        1.0     0.649400     0.491600     0.974900    Uiso  ? H
   H11        1.0     0.991600     0.350600     0.724900    Uiso  ? H
   H12        1.0     0.508400     0.149400     0.225000    Uiso  ? H
   H13        1.0     0.149400     0.491600     0.775100    Uiso  ? H
   H14        1.0     0.350600     0.008400     0.275100    Uiso  ? H
   H15        1.0     0.008400     0.149400     0.525100    Uiso  ? H
   H16        1.0     0.491600     0.350600     0.025100    Uiso  ? H
   H17        1.0     0.329900     0.406300     0.870400    Uiso  ? H
   H18        1.0     0.170100     0.093700     0.370400    Uiso  ? H
   H19        1.0     0.593700     0.829900     0.120400    Uiso  ? H
   H20        1.0     0.906300     0.670100     0.620400    Uiso  ? H
   H21        1.0     0.670100     0.093700     0.379600    Uiso  ? H
   H22        1.0     0.829900     0.406300     0.879600    Uiso  ? H
   H23        1.0     0.406300     0.670100     0.129600    Uiso  ? H
   H24        1.0     0.093700     0.829900     0.629600    Uiso  ? H
   H25        1.0     0.829900     0.906300     0.370400    Uiso  ? H
   H26        1.0     0.670100     0.593700     0.870400    Uiso  ? H
   H27        1.0     0.093700     0.329900     0.620400    Uiso  ? H
   H28        1.0     0.406300     0.170100     0.120400    Uiso  ? H
   H29        1.0     0.170100     0.593700     0.879600    Uiso  ? H
   H30        1.0     0.329900     0.906300     0.379600    Uiso  ? H
   H31        1.0     0.906300     0.170100     0.629600    Uiso  ? H
   H32        1.0     0.593700     0.329900     0.129600    Uiso  ? H
   H33        1.0     0.229100     0.770700     0.485400    Uiso  ? H
   H34        1.0     0.270900     0.729300     0.985400    Uiso  ? H
   H35        1.0     0.229300     0.729100     0.735400    Uiso  ? H
   H36        1.0     0.270700     0.770900     0.235400    Uiso  ? H
   H37        1.0     0.770900     0.729300     0.764600    Uiso  ? H
   H38        1.0     0.729100     0.770700     0.264600    Uiso  ? H
   H39        1.0     0.770700     0.770900     0.514600    Uiso  ? H
   H40        1.0     0.729300     0.729100     0.014600    Uiso  ? H
   H41        1.0     0.729100     0.270700     0.985400    Uiso  ? H
   H42        1.0     0.770900     0.229300     0.485400    Uiso  ? H
   H43        1.0     0.729300     0.229100     0.235400    Uiso  ? H
   H44        1.0     0.770700     0.270900     0.735400    Uiso  ? H
   H45        1.0     0.270900     0.229300     0.264600    Uiso  ? H
   H46        1.0     0.229100     0.270700     0.764600    Uiso  ? H
   H47        1.0     0.270700     0.270900     0.014600    Uiso  ? H
   H48        1.0     0.229300     0.229100     0.514600    Uiso  ? H
   H49        1.0     0.271500     0.500600     0.522200    Uiso  ? H
   H50        1.0     0.228500     0.999400     0.022200    Uiso  ? H
   H51        1.0     0.499400     0.771500     0.772200    Uiso  ? H
   H52        1.0     0.000600     0.728500     0.272200    Uiso  ? H
   H53        1.0     0.728500     0.999400     0.727800    Uiso  ? H
   H54        1.0     0.771500     0.500600     0.227800    Uiso  ? H
   H55        1.0     0.500600     0.728500     0.477800    Uiso  ? H
   H56        1.0     0.999400     0.771500     0.977800    Uiso  ? H
   H57        1.0     0.771500     0.000600     0.022200    Uiso  ? H
   H58        1.0     0.728500     0.499400     0.522200    Uiso  ? H
   H59        1.0     0.999400     0.271500     0.272200    Uiso  ? H
   H60        1.0     0.500600     0.228500     0.772200    Uiso  ? H
   H61        1.0     0.228500     0.499400     0.227800    Uiso  ? H
   H62        1.0     0.271500     0.000600     0.727800    Uiso  ? H
   H63        1.0     0.000600     0.228500     0.977800    Uiso  ? H
   H64        1.0     0.499400     0.271500     0.477800    Uiso  ? H
   H65        1.0     0.335300     0.606000     0.848300    Uiso  ? H
   H66        1.0     0.164900     0.894000     0.348400    Uiso  ? H
   H67        1.0     0.394000     0.835300     0.098300    Uiso  ? H
   H68        1.0     0.106000     0.664700     0.598300    Uiso  ? H
   H69        1.0     0.664700     0.894000     0.401700    Uiso  ? H
   H70        1.0     0.835300     0.606000     0.901700    Uiso  ? H
   H71        1.0     0.606000     0.664700     0.151700    Uiso  ? H
   H72        1.0     0.894000     0.835300     0.651700    Uiso  ? H
   H73        1.0     0.835300     0.106000     0.348300    Uiso  ? H
   H74        1.0     0.664700     0.394000     0.848300    Uiso  ? H
   H75        1.0     0.894000     0.335300     0.598300    Uiso  ? H
   H76        1.0     0.606000     0.164900     0.098400    Uiso  ? H
   H77        1.0     0.164900     0.394000     0.901600    Uiso  ? H
   H78        1.0     0.335300     0.106000     0.401700    Uiso  ? H
   H79        1.0     0.106000     0.164900     0.651600    Uiso  ? H
   H80        1.0     0.394000     0.335300     0.151700    Uiso  ? H
   C1         1.0     0.553000     0.298900     0.310500    Uiso  ? C
   C2         1.0     0.947000     0.201100     0.810500    Uiso  ? C
   C3         1.0     0.701100     0.053000     0.560500    Uiso  ? C
   C4         1.0     0.798900     0.447000     0.060500    Uiso  ? C
   C5         1.0     0.447000     0.201100     0.939500    Uiso  ? C
   C6         1.0     0.053000     0.298900     0.439500    Uiso  ? C
   C7         1.0     0.298900     0.447000     0.689500    Uiso  ? C
   C8         1.0     0.201100     0.053000     0.189500    Uiso  ? C
   C9         1.0     0.053000     0.798900     0.810500    Uiso  ? C
   C10        1.0     0.447000     0.701100     0.310500    Uiso  ? C
   C11        1.0     0.201100     0.553000     0.060500    Uiso  ? C
   C12        1.0     0.298900     0.947000     0.560500    Uiso  ? C
   C13        1.0     0.947000     0.701100     0.439500    Uiso  ? C
   C14        1.0     0.553000     0.798900     0.939500    Uiso  ? C
   C15        1.0     0.798900     0.947000     0.189500    Uiso  ? C
   C16        1.0     0.701100     0.553000     0.689500    Uiso  ? C
   C17        1.0     0.438600     0.324500     0.194100    Uiso  ? C
   C18        1.0     0.061400     0.175600     0.694100    Uiso  ? C
   C19        1.0     0.675500     0.938600     0.444100    Uiso  ? C
   C20        1.0     0.824500     0.561400     0.944100    Uiso  ? C
   C21        1.0     0.561400     0.175600     0.055900    Uiso  ? C
   C22        1.0     0.938600     0.324500     0.555900    Uiso  ? C
   C23        1.0     0.324500     0.561400     0.805900    Uiso  ? C
   C24        1.0     0.175600     0.938600     0.305900    Uiso  ? C
   C25        1.0     0.938600     0.824500     0.694100    Uiso  ? C
   C26        1.0     0.561400     0.675500     0.194100    Uiso  ? C
   C27        1.0     0.175600     0.438600     0.944100    Uiso  ? C
   C28        1.0     0.324500     0.061400     0.444100    Uiso  ? C
   C29        1.0     0.061400     0.675500     0.555900    Uiso  ? C
   C30        1.0     0.438600     0.824500     0.055900    Uiso  ? C
   C31        1.0     0.824500     0.061400     0.305900    Uiso  ? C
   C32        1.0     0.675500     0.438600     0.805900    Uiso  ? C
   C33        1.0     0.613200     0.290800     0.378200    Uiso  ? C
   C34        1.0     0.886800     0.209200     0.878200    Uiso  ? C
   C35        1.0     0.709200     0.113200     0.628200    Uiso  ? C
   C36        1.0     0.790800     0.386800     0.128200    Uiso  ? C
   C37        1.0     0.386800     0.209200     0.871800    Uiso  ? C
   C38        1.0     0.113200     0.290800     0.371800    Uiso  ? C
   C39        1.0     0.290800     0.386800     0.621800    Uiso  ? C
   C40        1.0     0.209200     0.113200     0.121800    Uiso  ? C
   C41        1.0     0.113200     0.790800     0.878200    Uiso  ? C
   C42        1.0     0.386800     0.709200     0.378200    Uiso  ? C
   C43        1.0     0.209200     0.613200     0.128200    Uiso  ? C
   C44        1.0     0.290800     0.886800     0.628200    Uiso  ? C
   C45        1.0     0.886800     0.709200     0.371800    Uiso  ? C
   C46        1.0     0.613200     0.790800     0.871800    Uiso  ? C
   C47        1.0     0.790800     0.886800     0.121800    Uiso  ? C
   C48        1.0     0.709200     0.613200     0.621800    Uiso  ? C
   C49        1.0     0.550300     0.321600     0.183600    Uiso  ? C
   C50        1.0     0.949700     0.178400     0.683600    Uiso  ? C
   C51        1.0     0.678400     0.050300     0.433600    Uiso  ? C
   C52        1.0     0.821600     0.449700     0.933600    Uiso  ? C
   C53        1.0     0.449700     0.178400     0.066400    Uiso  ? C
   C54        1.0     0.050300     0.321600     0.566400    Uiso  ? C
   C55        1.0     0.321600     0.449700     0.816400    Uiso  ? C
   C56        1.0     0.178400     0.050300     0.316400    Uiso  ? C
   C57        1.0     0.050300     0.821600     0.683600    Uiso  ? C
   C58        1.0     0.449700     0.678400     0.183600    Uiso  ? C
   C59        1.0     0.178400     0.550300     0.933600    Uiso  ? C
   C60        1.0     0.321600     0.949700     0.433600    Uiso  ? C
   C61        1.0     0.949700     0.678400     0.566400    Uiso  ? C
   C62        1.0     0.550300     0.821600     0.066400    Uiso  ? C
   C63        1.0     0.821600     0.949700     0.316400    Uiso  ? C
   C64        1.0     0.678400     0.550300     0.816400    Uiso  ? C
   C65        1.0     0.497600     0.288600     0.377400    Uiso  ? C
   C66        1.0     0.002400     0.211400     0.877400    Uiso  ? C
   C67        1.0     0.711400     0.997600     0.627400    Uiso  ? C
   C68        1.0     0.788600     0.502400     0.127400    Uiso  ? C
   C69        1.0     0.502400     0.211400     0.872600    Uiso  ? C
   C70        1.0     0.997600     0.288600     0.372600    Uiso  ? C
   C71        1.0     0.288600     0.502400     0.622600    Uiso  ? C
   C72        1.0     0.211400     0.997600     0.122600    Uiso  ? C
   C73        1.0     0.997600     0.788600     0.877400    Uiso  ? C
   C74        1.0     0.502400     0.711400     0.377400    Uiso  ? C
   C75        1.0     0.211400     0.497600     0.127400    Uiso  ? C
   C76        1.0     0.288600     0.002400     0.627400    Uiso  ? C
   C77        1.0     0.002400     0.711400     0.372600    Uiso  ? C
   C78        1.0     0.497600     0.788600     0.872600    Uiso  ? C
   C79        1.0     0.788600     0.002400     0.122600    Uiso  ? C
   C80        1.0     0.711400     0.497600     0.622600    Uiso  ? C
   C81        1.0     0.382400     0.296700     0.398700    Uiso  ? C
   C82        1.0     0.117600     0.203300     0.898700    Uiso  ? C
   C83        1.0     0.703300     0.882400     0.648700    Uiso  ? C
   C84        1.0     0.796700     0.617600     0.148700    Uiso  ? C
   C85        1.0     0.617600     0.203300     0.851300    Uiso  ? C
   C86        1.0     0.882400     0.296700     0.351300    Uiso  ? C
   C87        1.0     0.296700     0.617600     0.601300    Uiso  ? C
   C88        1.0     0.203300     0.882400     0.101300    Uiso  ? C
   C89        1.0     0.882400     0.796700     0.898700    Uiso  ? C
   C90        1.0     0.617600     0.703300     0.398700    Uiso  ? C
   C91        1.0     0.203300     0.382400     0.148700    Uiso  ? C
   C92        1.0     0.296700     0.117600     0.648700    Uiso  ? C
   C93        1.0     0.117600     0.703300     0.351300    Uiso  ? C
   C94        1.0     0.382400     0.796700     0.851300    Uiso  ? C
   C95        1.0     0.796700     0.117600     0.101300    Uiso  ? C
   C96        1.0     0.703300     0.382400     0.601300    Uiso  ? C
   C97        1.0     0.440200     0.302100     0.321400    Uiso  ? C
   C98        1.0     0.059800     0.197900     0.821400    Uiso  ? C
   C99        1.0     0.697900     0.940200     0.571400    Uiso  ? C
   C100       1.0     0.802100     0.559800     0.071400    Uiso  ? C
   C101       1.0     0.559800     0.197900     0.928600    Uiso  ? C
   C102       1.0     0.940200     0.302100     0.428600    Uiso  ? C
   C103       1.0     0.302100     0.559800     0.678600    Uiso  ? C
   C104       1.0     0.197900     0.940200     0.178600    Uiso  ? C
   C105       1.0     0.940200     0.802100     0.821400    Uiso  ? C
   C106       1.0     0.559800     0.697900     0.321400    Uiso  ? C
   C107       1.0     0.197900     0.440200     0.071400    Uiso  ? C
   C108       1.0     0.302100     0.059800     0.571400    Uiso  ? C
   C109       1.0     0.059800     0.697900     0.428600    Uiso  ? C
   C110       1.0     0.440200     0.802100     0.928600    Uiso  ? C
   C111       1.0     0.802100     0.059800     0.178600    Uiso  ? C
   C112       1.0     0.697900     0.440200     0.678600    Uiso  ? C
   C113       1.0     0.493300     0.333500     0.125200    Uiso  ? C
   C114       1.0     0.006700     0.166500     0.625200    Uiso  ? C
   C115       1.0     0.666500     0.993300     0.375200    Uiso  ? C
   C116       1.0     0.833500     0.506700     0.875200    Uiso  ? C
   C117       1.0     0.506700     0.166500     0.124800    Uiso  ? C
   C118       1.0     0.993300     0.333500     0.624800    Uiso  ? C
   C119       1.0     0.333500     0.506700     0.874800    Uiso  ? C
   C120       1.0     0.166500     0.993300     0.374800    Uiso  ? C
   C121       1.0     0.993300     0.833500     0.625200    Uiso  ? C
   C122       1.0     0.506700     0.666500     0.125200    Uiso  ? C
   C123       1.0     0.166500     0.493300     0.875200    Uiso  ? C
   C124       1.0     0.333500     0.006700     0.375200    Uiso  ? C
   C125       1.0     0.006700     0.666500     0.624800    Uiso  ? C
   C126       1.0     0.493300     0.833500     0.124800    Uiso  ? C
   C127       1.0     0.833500     0.006700     0.374800    Uiso  ? C
   C128       1.0     0.666500     0.493300     0.874800    Uiso  ? C
   O1         1.0     0.161100     0.318300     0.422700    Uiso  ? O
   O2         1.0     0.338900     0.181700     0.922700    Uiso  ? O
   O3         1.0     0.681700     0.661100     0.672700    Uiso  ? O
   O4         1.0     0.818300     0.838900     0.172700    Uiso  ? O
   O5         1.0     0.838900     0.181700     0.827300    Uiso  ? O
   O6         1.0     0.661100     0.318300     0.327300    Uiso  ? O
   O7         1.0     0.318300     0.838900     0.577300    Uiso  ? O
   O8         1.0     0.181700     0.661100     0.077300    Uiso  ? O
   O9         1.0     0.661100     0.818300     0.922700    Uiso  ? O
   O10        1.0     0.838900     0.681700     0.422700    Uiso  ? O
   O11        1.0     0.181700     0.161100     0.172700    Uiso  ? O
   O12        1.0     0.318300     0.338900     0.672700    Uiso  ? O
   O13        1.0     0.338900     0.681700     0.327300    Uiso  ? O
   O14        1.0     0.161100     0.818300     0.827300    Uiso  ? O
   O15        1.0     0.818300     0.338900     0.077300    Uiso  ? O
   O16        1.0     0.681700     0.161100     0.577300    Uiso  ? O
   O17        1.0     0.333200     0.323100     0.351500    Uiso  ? O
   O18        1.0     0.166800     0.176900     0.851500    Uiso  ? O
   O19        1.0     0.676800     0.833200     0.601500    Uiso  ? O
   O20        1.0     0.823200     0.666800     0.101500    Uiso  ? O
   O21        1.0     0.666800     0.176900     0.898500    Uiso  ? O
   O22        1.0     0.833200     0.323100     0.398500    Uiso  ? O
   O23        1.0     0.323100     0.666800     0.648500    Uiso  ? O
   O24        1.0     0.176900     0.833200     0.148500    Uiso  ? O
   O25        1.0     0.833200     0.823200     0.851500    Uiso  ? O
   O26        1.0     0.666800     0.676800     0.351500    Uiso  ? O
   O27        1.0     0.176900     0.333200     0.101500    Uiso  ? O
   O28        1.0     0.323100     0.166800     0.601500    Uiso  ? O
   O29        1.0     0.166800     0.676800     0.398500    Uiso  ? O
   O30        1.0     0.333200     0.823200     0.898500    Uiso  ? O
   O31        1.0     0.823200     0.166800     0.148500    Uiso  ? O
   O32        1.0     0.676800     0.333200     0.648500    Uiso  ? O
   O33        1.0     0.614800     0.259000     0.485200    Uiso  ? O
   O34        1.0     0.885200     0.241000     0.985200    Uiso  ? O
   O35        1.0     0.741000     0.114800     0.735200    Uiso  ? O
   O36        1.0     0.759000     0.385200     0.235200    Uiso  ? O
   O37        1.0     0.385200     0.241000     0.764800    Uiso  ? O
   O38        1.0     0.114800     0.259000     0.264800    Uiso  ? O
   O39        1.0     0.259000     0.385200     0.514800    Uiso  ? O
   O40        1.0     0.241000     0.114800     0.014800    Uiso  ? O
   O41        1.0     0.114800     0.759000     0.985200    Uiso  ? O
   O42        1.0     0.385200     0.741000     0.485200    Uiso  ? O
   O43        1.0     0.241000     0.614800     0.235200    Uiso  ? O
   O44        1.0     0.259000     0.885200     0.735200    Uiso  ? O
   O45        1.0     0.885200     0.741000     0.264800    Uiso  ? O
   O46        1.0     0.614800     0.759000     0.764800    Uiso  ? O
   O47        1.0     0.759000     0.885200     0.014800    Uiso  ? O
   O48        1.0     0.741000     0.614800     0.514800    Uiso  ? O
   O49        1.0     0.383700     0.267300     0.508800    Uiso  ? O
   O50        1.0     0.116300     0.232600     0.008800    Uiso  ? O
   O51        1.0     0.732700     0.883700     0.758800    Uiso  ? O
   O52        1.0     0.767300     0.616300     0.258800    Uiso  ? O
   O53        1.0     0.616300     0.232600     0.741200    Uiso  ? O
   O54        1.0     0.883700     0.267300     0.241200    Uiso  ? O
   O55        1.0     0.267300     0.616300     0.491200    Uiso  ? O
   O56        1.0     0.232600     0.883700     0.991200    Uiso  ? O
   O57        1.0     0.883700     0.767300     0.008800    Uiso  ? O
   O58        1.0     0.616300     0.732700     0.508800    Uiso  ? O
   O59        1.0     0.232600     0.383700     0.258800    Uiso  ? O
   O60        1.0     0.267300     0.116300     0.758800    Uiso  ? O
   O61        1.0     0.116300     0.732700     0.241200    Uiso  ? O
   O62        1.0     0.383700     0.767300     0.741200    Uiso  ? O
   O63        1.0     0.767300     0.116300     0.991200    Uiso  ? O
   O64        1.0     0.732700     0.383700     0.491200    Uiso  ? O
   O65        1.0     0.259500     0.261300     0.513900    Uiso  ? O
   O66        1.0     0.240500     0.238700     0.013900    Uiso  ? O
   O67        1.0     0.738700     0.759500     0.763900    Uiso  ? O
   O68        1.0     0.761300     0.740500     0.263900    Uiso  ? O
   O69        1.0     0.740500     0.238700     0.736100    Uiso  ? O
   O70        1.0     0.759500     0.261300     0.236100    Uiso  ? O
   O71        1.0     0.261300     0.740500     0.486100    Uiso  ? O
   O72        1.0     0.238700     0.759500     0.986100    Uiso  ? O
   O73        1.0     0.759500     0.761300     0.013900    Uiso  ? O
   O74        1.0     0.740500     0.738700     0.513900    Uiso  ? O
   O75        1.0     0.238700     0.259500     0.263900    Uiso  ? O
   O76        1.0     0.261300     0.240500     0.763900    Uiso  ? O
   O77        1.0     0.240500     0.738700     0.236100    Uiso  ? O
   O78        1.0     0.259500     0.761300     0.736100    Uiso  ? O
   O79        1.0     0.761300     0.240500     0.986100    Uiso  ? O
   O80        1.0     0.738700     0.259500     0.486100    Uiso  ? O
