
#======================================================================
# CRYSTAL DATA
#----------------------------------------------------------------------
data_VESTA_phase_1

_chemical_name_common                  'CAU-10-CH3'
_cell_length_a                         21.491699
_cell_length_b                         21.491699
_cell_length_c                         10.181000
_cell_angle_alpha                      90.000000
_cell_angle_beta                       90.000000
_cell_angle_gamma                      90.000000
_cell_volume                           4702.533898
_space_group_name_H-M_alt              'P 1'
_space_group_IT_number                 1

loop_
_space_group_symop_operation_xyz
   'x, y, z'

loop_
   _atom_site_label
   _atom_site_occupancy
   _atom_site_fract_x
   _atom_site_fract_y
   _atom_site_fract_z
   _atom_site_adp_type
   _atom_site_U_iso_or_equiv
   _atom_site_type_symbol
   Al1        1.0     0.320700     0.749900     0.625800    Uiso  ? Al
   Al2        1.0     0.178700     0.750300     0.126400    Uiso  ? Al
   Al3        1.0     0.250200     0.821600     0.876600    Uiso  ? Al
   Al4        1.0     0.249700     0.679100     0.376400    Uiso  ? Al
   Al5        1.0     0.679300     0.749900     0.625900    Uiso  ? Al
   Al6        1.0     0.821000     0.750400     0.127100    Uiso  ? Al
   Al7        1.0     0.750300     0.679100     0.376700    Uiso  ? Al
   Al8        1.0     0.749400     0.821500     0.877600    Uiso  ? Al
   Al9        1.0     0.821000     0.249600     0.127100    Uiso  ? Al
   Al10       1.0     0.679300     0.250100     0.625900    Uiso  ? Al
   Al11       1.0     0.750300     0.320900     0.376700    Uiso  ? Al
   Al12       1.0     0.749400     0.178500     0.877600    Uiso  ? Al
   Al13       1.0     0.178700     0.249700     0.126400    Uiso  ? Al
   Al14       1.0     0.320700     0.250100     0.625800    Uiso  ? Al
   Al15       1.0     0.250200     0.178400     0.876600    Uiso  ? Al
   Al16       1.0     0.249700     0.320900     0.376400    Uiso  ? Al
   H1         1.0     0.958700     0.849600     0.438400    Uiso  ? H
   H2         1.0     0.400500     0.662700     0.149300    Uiso  ? H
   H3         1.0     0.999700     0.915400     0.493900    Uiso  ? H
   H4         1.0     0.220400     0.750700     0.705900    Uiso  ? H
   H5         1.0     0.500000     0.729800     0.483800    Uiso  ? H
   H6         1.0     0.540900     0.650400     0.938100    Uiso  ? H
   H7         1.0     0.099300     0.837800     0.649400    Uiso  ? H
   H8         1.0     0.500100     0.584700     0.994500    Uiso  ? H
   H9         1.0     0.279300     0.752300     0.208600    Uiso  ? H
   H10        1.0     0.999900     0.770500     0.983900    Uiso  ? H
   H11        1.0     0.150600     0.459100     0.689400    Uiso  ? H
   H12        1.0     0.336300     0.900500     0.396700    Uiso  ? H
   H13        1.0     0.085000     0.500000     0.745600    Uiso  ? H
   H14        1.0     0.249500     0.720400     0.954800    Uiso  ? H
   H15        1.0     0.270000     0.000000     0.731800    Uiso  ? H
   H16        1.0     0.348300     0.040900     0.185300    Uiso  ? H
   H17        1.0     0.162800     0.599500     0.900700    Uiso  ? H
   H18        1.0     0.414000     0.000000     0.241400    Uiso  ? H
   H19        1.0     0.248000     0.779200     0.457200    Uiso  ? H
   H20        1.0     0.229800     0.500000     0.235200    Uiso  ? H
   H21        1.0     0.540900     0.851000     0.309600    Uiso  ? H
   H22        1.0     0.099600     0.661100     0.598400    Uiso  ? H
   H23        1.0     0.500000     0.916600     0.252400    Uiso  ? H
   H24        1.0     0.000000     0.729400     0.265300    Uiso  ? H
   H25        1.0     0.959100     0.648400     0.809700    Uiso  ? H
   H26        1.0     0.400400     0.838100     0.098400    Uiso  ? H
   H27        1.0     0.000100     0.582900     0.753100    Uiso  ? H
   H28        1.0     0.499900     0.770300     0.764700    Uiso  ? H
   H29        1.0     0.350900     0.459100     0.061100    Uiso  ? H
   H30        1.0     0.160700     0.900400     0.349300    Uiso  ? H
   H31        1.0     0.416500     0.500000     0.004100    Uiso  ? H
   H32        1.0     0.229300     0.000000     0.016500    Uiso  ? H
   H33        1.0     0.147800     0.040900     0.560500    Uiso  ? H
   H34        1.0     0.338100     0.599600     0.849900    Uiso  ? H
   H35        1.0     0.082200     0.000000     0.503600    Uiso  ? H
   H36        1.0     0.270400     0.500000     0.516100    Uiso  ? H
   H37        1.0     0.040900     0.648500     0.809800    Uiso  ? H
   H38        1.0     0.599500     0.838100     0.098300    Uiso  ? H
   H39        1.0     0.751900     0.779100     0.457300    Uiso  ? H
   H40        1.0     0.459100     0.851100     0.309700    Uiso  ? H
   H41        1.0     0.900400     0.661100     0.598400    Uiso  ? H
   H42        1.0     0.747400     0.720800     0.960400    Uiso  ? H
   H43        1.0     0.852200     0.040900     0.560700    Uiso  ? H
   H44        1.0     0.661900     0.599600     0.849900    Uiso  ? H
   H45        1.0     0.917700     0.000000     0.503900    Uiso  ? H
   H46        1.0     0.720900     0.752400     0.208900    Uiso  ? H
   H47        1.0     0.729600     0.500000     0.516200    Uiso  ? H
   H48        1.0     0.649100     0.459100     0.061200    Uiso  ? H
   H49        1.0     0.839300     0.900400     0.349500    Uiso  ? H
   H50        1.0     0.583500     0.500000     0.004200    Uiso  ? H
   H51        1.0     0.779700     0.750500     0.707100    Uiso  ? H
   H52        1.0     0.770700     0.000000     0.016600    Uiso  ? H
   H53        1.0     0.459100     0.650400     0.938100    Uiso  ? H
   H54        1.0     0.900200     0.837700     0.649800    Uiso  ? H
   H55        1.0     0.040500     0.849500     0.438100    Uiso  ? H
   H56        1.0     0.599500     0.662700     0.149300    Uiso  ? H
   H57        1.0     0.651700     0.040900     0.185500    Uiso  ? H
   H58        1.0     0.837200     0.599500     0.900700    Uiso  ? H
   H59        1.0     0.586000     0.000000     0.241600    Uiso  ? H
   H60        1.0     0.770200     0.500000     0.235300    Uiso  ? H
   H61        1.0     0.849400     0.459100     0.689500    Uiso  ? H
   H62        1.0     0.663700     0.900500     0.396900    Uiso  ? H
   H63        1.0     0.915100     0.500000     0.745600    Uiso  ? H
   H64        1.0     0.730000     0.000000     0.732000    Uiso  ? H
   H65        1.0     0.459100     0.349700     0.938100    Uiso  ? H
   H66        1.0     0.900200     0.162300     0.649800    Uiso  ? H
   H67        1.0     0.500100     0.415300     0.994500    Uiso  ? H
   H68        1.0     0.720900     0.247600     0.208900    Uiso  ? H
   H69        1.0     0.999900     0.229500     0.983900    Uiso  ? H
   H70        1.0     0.040500     0.150500     0.438200    Uiso  ? H
   H71        1.0     0.599500     0.337300     0.149300    Uiso  ? H
   H72        1.0     0.999700     0.084600     0.493900    Uiso  ? H
   H73        1.0     0.779700     0.249400     0.707000    Uiso  ? H
   H74        1.0     0.500000     0.270200     0.483800    Uiso  ? H
   H75        1.0     0.651700     0.959100     0.185500    Uiso  ? H
   H76        1.0     0.837200     0.400500     0.900700    Uiso  ? H
   H77        1.0     0.751900     0.220900     0.457300    Uiso  ? H
   H78        1.0     0.849400     0.540900     0.689500    Uiso  ? H
   H79        1.0     0.663700     0.099500     0.396900    Uiso  ? H
   H80        1.0     0.747500     0.279200     0.960300    Uiso  ? H
   H81        1.0     0.040900     0.351400     0.809800    Uiso  ? H
   H82        1.0     0.599500     0.161900     0.098300    Uiso  ? H
   H83        1.0     0.000100     0.417100     0.753100    Uiso  ? H
   H84        1.0     0.499900     0.229700     0.764700    Uiso  ? H
   H85        1.0     0.459100     0.148900     0.309700    Uiso  ? H
   H86        1.0     0.900400     0.338900     0.598400    Uiso  ? H
   H87        1.0     0.500000     0.083500     0.252500    Uiso  ? H
   H88        1.0     0.000000     0.270600     0.265300    Uiso  ? H
   H89        1.0     0.852200     0.959100     0.560700    Uiso  ? H
   H90        1.0     0.661900     0.400400     0.849900    Uiso  ? H
   H91        1.0     0.649100     0.540900     0.061200    Uiso  ? H
   H92        1.0     0.839300     0.099600     0.349500    Uiso  ? H
   H93        1.0     0.540900     0.149000     0.309600    Uiso  ? H
   H94        1.0     0.099600     0.338900     0.598400    Uiso  ? H
   H95        1.0     0.249500     0.279600     0.954800    Uiso  ? H
   H96        1.0     0.959100     0.351600     0.809600    Uiso  ? H
   H97        1.0     0.400400     0.161900     0.098400    Uiso  ? H
   H98        1.0     0.248100     0.220800     0.457200    Uiso  ? H
   H99        1.0     0.350900     0.540900     0.061100    Uiso  ? H
   H100       1.0     0.160700     0.099600     0.349300    Uiso  ? H
   H101       1.0     0.220400     0.249300     0.705800    Uiso  ? H
   H102       1.0     0.147800     0.959100     0.560500    Uiso  ? H
   H103       1.0     0.338100     0.400400     0.849900    Uiso  ? H
   H104       1.0     0.279300     0.247700     0.208600    Uiso  ? H
   H105       1.0     0.958700     0.150400     0.438400    Uiso  ? H
   H106       1.0     0.400500     0.337300     0.149300    Uiso  ? H
   H107       1.0     0.540900     0.349600     0.938100    Uiso  ? H
   H108       1.0     0.099300     0.162200     0.649400    Uiso  ? H
   H109       1.0     0.150600     0.540900     0.689400    Uiso  ? H
   H110       1.0     0.336300     0.099500     0.396700    Uiso  ? H
   H111       1.0     0.348300     0.959100     0.185300    Uiso  ? H
   H112       1.0     0.162800     0.400500     0.900700    Uiso  ? H
   C1         1.0     0.444500     0.828000     0.051900    Uiso  ? C
   C2         1.0     0.444100     0.803300     0.925200    Uiso  ? C
   C3         1.0     0.384200     0.794000     0.855500    Uiso  ? C
   C4         1.0     0.500000     0.865700     0.254600    Uiso  ? C
   C5         1.0     0.499900     0.789700     0.862500    Uiso  ? C
   C6         1.0     0.499900     0.839600     0.118100    Uiso  ? C
   C7         1.0     0.055500     0.671200     0.551900    Uiso  ? C
   C8         1.0     0.055800     0.696000     0.425400    Uiso  ? C
   C9         1.0     0.115500     0.705800     0.355500    Uiso  ? C
   C10        1.0     0.000000     0.633700     0.754800    Uiso  ? C
   C11        1.0     0.000000     0.709700     0.362900    Uiso  ? C
   C12        1.0     0.000000     0.659600     0.618100    Uiso  ? C
   C13        1.0     0.170800     0.944600     0.302800    Uiso  ? C
   C14        1.0     0.195800     0.944200     0.176400    Uiso  ? C
   C15        1.0     0.205700     0.884500     0.106800    Uiso  ? C
   C16        1.0     0.133100     0.000000     0.505500    Uiso  ? C
   C17        1.0     0.209500     0.000000     0.114000    Uiso  ? C
   C18        1.0     0.159100     0.000000     0.368900    Uiso  ? C
   C19        1.0     0.328000     0.555400     0.803300    Uiso  ? C
   C20        1.0     0.303300     0.555800     0.676600    Uiso  ? C
   C21        1.0     0.293900     0.615700     0.607000    Uiso  ? C
   C22        1.0     0.365600     0.500000     0.006100    Uiso  ? C
   C23        1.0     0.289800     0.500000     0.614000    Uiso  ? C
   C24        1.0     0.339600     0.500000     0.869500    Uiso  ? C
   C25        1.0     0.055200     0.827700     0.696300    Uiso  ? C
   C26        1.0     0.055600     0.803400     0.823200    Uiso  ? C
   C27        1.0     0.115500     0.794000     0.893400    Uiso  ? C
   C28        1.0     0.999600     0.864500     0.493000    Uiso  ? C
   C29        1.0     0.999900     0.789800     0.885900    Uiso  ? C
   C30        1.0     0.999700     0.839100     0.630000    Uiso  ? C
   C31        1.0     0.444600     0.672800     0.196100    Uiso  ? C
   C32        1.0     0.444200     0.697100     0.323100    Uiso  ? C
   C33        1.0     0.384300     0.706300     0.393000    Uiso  ? C
   C34        1.0     0.500000     0.635600     0.993000    Uiso  ? C
   C35        1.0     0.500000     0.710600     0.385800    Uiso  ? C
   C36        1.0     0.500000     0.661300     0.129800    Uiso  ? C
   C37        1.0     0.326300     0.944600     0.443500    Uiso  ? C
   C38        1.0     0.302300     0.944200     0.570800    Uiso  ? C
   C39        1.0     0.293500     0.884400     0.641300    Uiso  ? C
   C40        1.0     0.363200     0.000000     0.240200    Uiso  ? C
   C41        1.0     0.288900     0.000000     0.633500    Uiso  ? C
   C42        1.0     0.337700     0.000000     0.377100    Uiso  ? C
   C43        1.0     0.172800     0.555400     0.947500    Uiso  ? C
   C44        1.0     0.197200     0.555800     0.074500    Uiso  ? C
   C45        1.0     0.206300     0.615700     0.144600    Uiso  ? C
   C46        1.0     0.135800     0.500000     0.744300    Uiso  ? C
   C47        1.0     0.210600     0.500000     0.137100    Uiso  ? C
   C48        1.0     0.161400     0.500000     0.881100    Uiso  ? C
   C49        1.0     0.555400     0.672800     0.196100    Uiso  ? C
   C50        1.0     0.555800     0.697100     0.323100    Uiso  ? C
   C51        1.0     0.615800     0.706300     0.393100    Uiso  ? C
   C52        1.0     0.944300     0.827700     0.696500    Uiso  ? C
   C53        1.0     0.944000     0.803300     0.823500    Uiso  ? C
   C54        1.0     0.884200     0.793900     0.893800    Uiso  ? C
   C55        1.0     0.827200     0.555400     0.947600    Uiso  ? C
   C56        1.0     0.802900     0.555800     0.074600    Uiso  ? C
   C57        1.0     0.793700     0.615700     0.144600    Uiso  ? C
   C58        1.0     0.864300     0.500000     0.744300    Uiso  ? C
   C59        1.0     0.789400     0.500000     0.137200    Uiso  ? C
   C60        1.0     0.838700     0.500000     0.881200    Uiso  ? C
   C61        1.0     0.673700     0.944600     0.443700    Uiso  ? C
   C62        1.0     0.697800     0.944200     0.571000    Uiso  ? C
   C63        1.0     0.706500     0.884300     0.641500    Uiso  ? C
   C64        1.0     0.636800     0.000000     0.240300    Uiso  ? C
   C65        1.0     0.711100     0.000000     0.633700    Uiso  ? C
   C66        1.0     0.662400     0.000000     0.377300    Uiso  ? C
   C67        1.0     0.944600     0.671200     0.551900    Uiso  ? C
   C68        1.0     0.944300     0.696000     0.425400    Uiso  ? C
   C69        1.0     0.884500     0.705800     0.355600    Uiso  ? C
   C70        1.0     0.555300     0.827900     0.051800    Uiso  ? C
   C71        1.0     0.555700     0.803300     0.925100    Uiso  ? C
   C72        1.0     0.615600     0.794100     0.855400    Uiso  ? C
   C73        1.0     0.672000     0.555400     0.803400    Uiso  ? C
   C74        1.0     0.696700     0.555800     0.676700    Uiso  ? C
   C75        1.0     0.706100     0.615700     0.607100    Uiso  ? C
   C76        1.0     0.634400     0.500000     0.006200    Uiso  ? C
   C77        1.0     0.710200     0.500000     0.614100    Uiso  ? C
   C78        1.0     0.660400     0.500000     0.869600    Uiso  ? C
   C79        1.0     0.829200     0.944600     0.303000    Uiso  ? C
   C80        1.0     0.804200     0.944300     0.176600    Uiso  ? C
   C81        1.0     0.794300     0.884500     0.106900    Uiso  ? C
   C82        1.0     0.866900     0.000000     0.505700    Uiso  ? C
   C83        1.0     0.790500     0.000000     0.114100    Uiso  ? C
   C84        1.0     0.840900     0.000000     0.369100    Uiso  ? C
   C85        1.0     0.944600     0.328800     0.551900    Uiso  ? C
   C86        1.0     0.944300     0.304000     0.425400    Uiso  ? C
   C87        1.0     0.884500     0.294200     0.355600    Uiso  ? C
   C88        1.0     0.000000     0.366300     0.754800    Uiso  ? C
   C89        1.0     0.000000     0.290300     0.362900    Uiso  ? C
   C90        1.0     0.000000     0.340400     0.618100    Uiso  ? C
   C91        1.0     0.555300     0.172100     0.051800    Uiso  ? C
   C92        1.0     0.555700     0.196700     0.925100    Uiso  ? C
   C93        1.0     0.615600     0.205900     0.855400    Uiso  ? C
   C94        1.0     0.500000     0.134300     0.254600    Uiso  ? C
   C95        1.0     0.499900     0.210300     0.862500    Uiso  ? C
   C96        1.0     0.499900     0.160400     0.118100    Uiso  ? C
   C97        1.0     0.672000     0.444600     0.803400    Uiso  ? C
   C98        1.0     0.696700     0.444200     0.676700    Uiso  ? C
   C99        1.0     0.706100     0.384300     0.607100    Uiso  ? C
   C100       1.0     0.829200     0.055400     0.303000    Uiso  ? C
   C101       1.0     0.804200     0.055700     0.176600    Uiso  ? C
   C102       1.0     0.794300     0.115500     0.106900    Uiso  ? C
   C103       1.0     0.555400     0.327200     0.196100    Uiso  ? C
   C104       1.0     0.555800     0.302900     0.323100    Uiso  ? C
   C105       1.0     0.615800     0.293700     0.393100    Uiso  ? C
   C106       1.0     0.500000     0.364400     0.993000    Uiso  ? C
   C107       1.0     0.500000     0.289400     0.385800    Uiso  ? C
   C108       1.0     0.500000     0.338700     0.129800    Uiso  ? C
   C109       1.0     0.944300     0.172300     0.696500    Uiso  ? C
   C110       1.0     0.944000     0.196700     0.823400    Uiso  ? C
   C111       1.0     0.884200     0.206100     0.893800    Uiso  ? C
   C112       1.0     0.999700     0.135500     0.493000    Uiso  ? C
   C113       1.0     0.999900     0.210200     0.885900    Uiso  ? C
   C114       1.0     0.999700     0.160900     0.630000    Uiso  ? C
   C115       1.0     0.827200     0.444600     0.947600    Uiso  ? C
   C116       1.0     0.802900     0.444200     0.074600    Uiso  ? C
   C117       1.0     0.793700     0.384300     0.144600    Uiso  ? C
   C118       1.0     0.673700     0.055400     0.443700    Uiso  ? C
   C119       1.0     0.697800     0.055800     0.571000    Uiso  ? C
   C120       1.0     0.706500     0.115700     0.641500    Uiso  ? C
   C121       1.0     0.055200     0.172300     0.696300    Uiso  ? C
   C122       1.0     0.055600     0.196600     0.823200    Uiso  ? C
   C123       1.0     0.115500     0.206000     0.893400    Uiso  ? C
   C124       1.0     0.444600     0.327200     0.196100    Uiso  ? C
   C125       1.0     0.444200     0.302900     0.323100    Uiso  ? C
   C126       1.0     0.384300     0.293700     0.393000    Uiso  ? C
   C127       1.0     0.326300     0.055400     0.443500    Uiso  ? C
   C128       1.0     0.302300     0.055800     0.570800    Uiso  ? C
   C129       1.0     0.293500     0.115600     0.641300    Uiso  ? C
   C130       1.0     0.172800     0.444600     0.947500    Uiso  ? C
   C131       1.0     0.197200     0.444200     0.074500    Uiso  ? C
   C132       1.0     0.206300     0.384300     0.144600    Uiso  ? C
   C133       1.0     0.444500     0.172000     0.051900    Uiso  ? C
   C134       1.0     0.444100     0.196700     0.925200    Uiso  ? C
   C135       1.0     0.384200     0.206000     0.855500    Uiso  ? C
   C136       1.0     0.055500     0.328800     0.551900    Uiso  ? C
   C137       1.0     0.055800     0.304000     0.425400    Uiso  ? C
   C138       1.0     0.115500     0.294200     0.355500    Uiso  ? C
   C139       1.0     0.170800     0.055400     0.302800    Uiso  ? C
   C140       1.0     0.195800     0.055800     0.176400    Uiso  ? C
   C141       1.0     0.205700     0.115500     0.106800    Uiso  ? C
   C142       1.0     0.328000     0.444600     0.803300    Uiso  ? C
   C143       1.0     0.303300     0.444200     0.676600    Uiso  ? C
   C144       1.0     0.293900     0.384300     0.607000    Uiso  ? C
   O1         1.0     0.384600     0.759800     0.753300    Uiso  ? O
   O2         1.0     0.337500     0.822000     0.903500    Uiso  ? O
   O3         1.0     0.258600     0.758700     0.752300    Uiso  ? O
   O4         1.0     0.115100     0.740900     0.255000    Uiso  ? O
   O5         1.0     0.162500     0.677500     0.400800    Uiso  ? O
   O6         1.0     0.241100     0.744300     0.255100    Uiso  ? O
   O7         1.0     0.240900     0.884800     0.006500    Uiso  ? O
   O8         1.0     0.177500     0.837400     0.152300    Uiso  ? O
   O9         1.0     0.241600     0.758500     0.001600    Uiso  ? O
   O10        1.0     0.259700     0.615400     0.504900    Uiso  ? O
   O11        1.0     0.321900     0.662600     0.655100    Uiso  ? O
   O12        1.0     0.255800     0.741000     0.504300    Uiso  ? O
   O13        1.0     0.115000     0.759300     0.994200    Uiso  ? O
   O14        1.0     0.162500     0.822400     0.846900    Uiso  ? O
   O15        1.0     0.384600     0.740200     0.495400    Uiso  ? O
   O16        1.0     0.337300     0.678300     0.344300    Uiso  ? O
   O17        1.0     0.259700     0.884900     0.744000    Uiso  ? O
   O18        1.0     0.321600     0.837500     0.592400    Uiso  ? O
   O19        1.0     0.240400     0.615200     0.246800    Uiso  ? O
   O20        1.0     0.178200     0.662600     0.096200    Uiso  ? O
   O21        1.0     0.615400     0.740200     0.495400    Uiso  ? O
   O22        1.0     0.662700     0.678300     0.344300    Uiso  ? O
   O23        1.0     0.744200     0.741000     0.504500    Uiso  ? O
   O24        1.0     0.884600     0.759200     0.994700    Uiso  ? O
   O25        1.0     0.837100     0.822200     0.847400    Uiso  ? O
   O26        1.0     0.755700     0.759000     0.006700    Uiso  ? O
   O27        1.0     0.759600     0.615200     0.246800    Uiso  ? O
   O28        1.0     0.821700     0.662600     0.096200    Uiso  ? O
   O29        1.0     0.759000     0.744300     0.255900    Uiso  ? O
   O30        1.0     0.740200     0.884900     0.744200    Uiso  ? O
   O31        1.0     0.678400     0.837500     0.592500    Uiso  ? O
   O32        1.0     0.741400     0.758600     0.753000    Uiso  ? O
   O33        1.0     0.884900     0.740900     0.255000    Uiso  ? O
   O34        1.0     0.837500     0.677500     0.400800    Uiso  ? O
   O35        1.0     0.615300     0.759800     0.753300    Uiso  ? O
   O36        1.0     0.662300     0.822100     0.903400    Uiso  ? O
   O37        1.0     0.740300     0.615400     0.504900    Uiso  ? O
   O38        1.0     0.678100     0.662600     0.655100    Uiso  ? O
   O39        1.0     0.759100     0.884900     0.006600    Uiso  ? O
   O40        1.0     0.822500     0.837500     0.152400    Uiso  ? O
   O41        1.0     0.884900     0.259100     0.255000    Uiso  ? O
   O42        1.0     0.837500     0.322500     0.400800    Uiso  ? O
   O43        1.0     0.759000     0.255700     0.255900    Uiso  ? O
   O44        1.0     0.615300     0.240200     0.753300    Uiso  ? O
   O45        1.0     0.662300     0.177900     0.903400    Uiso  ? O
   O46        1.0     0.741400     0.241400     0.753000    Uiso  ? O
   O47        1.0     0.740300     0.384600     0.504900    Uiso  ? O
   O48        1.0     0.678100     0.337400     0.655100    Uiso  ? O
   O49        1.0     0.744200     0.259000     0.504500    Uiso  ? O
   O50        1.0     0.759100     0.115100     0.006600    Uiso  ? O
   O51        1.0     0.822500     0.162500     0.152400    Uiso  ? O
   O52        1.0     0.755700     0.241000     0.006700    Uiso  ? O
   O53        1.0     0.615400     0.259800     0.495400    Uiso  ? O
   O54        1.0     0.662700     0.321700     0.344300    Uiso  ? O
   O55        1.0     0.884600     0.240800     0.994700    Uiso  ? O
   O56        1.0     0.837100     0.177800     0.847400    Uiso  ? O
   O57        1.0     0.759600     0.384800     0.246800    Uiso  ? O
   O58        1.0     0.821700     0.337400     0.096200    Uiso  ? O
   O59        1.0     0.740200     0.115100     0.744200    Uiso  ? O
   O60        1.0     0.678400     0.162500     0.592500    Uiso  ? O
   O61        1.0     0.115000     0.240700     0.994200    Uiso  ? O
   O62        1.0     0.162500     0.177600     0.846900    Uiso  ? O
   O63        1.0     0.241600     0.241500     0.001600    Uiso  ? O
   O64        1.0     0.384600     0.259800     0.495400    Uiso  ? O
   O65        1.0     0.337300     0.321700     0.344300    Uiso  ? O
   O66        1.0     0.255800     0.259000     0.504300    Uiso  ? O
   O67        1.0     0.259700     0.115100     0.744000    Uiso  ? O
   O68        1.0     0.321600     0.162500     0.592400    Uiso  ? O
   O69        1.0     0.258600     0.241300     0.752300    Uiso  ? O
   O70        1.0     0.240400     0.384800     0.246800    Uiso  ? O
   O71        1.0     0.178200     0.337400     0.096200    Uiso  ? O
   O72        1.0     0.241100     0.255700     0.255100    Uiso  ? O
   O73        1.0     0.384600     0.240200     0.753300    Uiso  ? O
   O74        1.0     0.337500     0.178000     0.903500    Uiso  ? O
   O75        1.0     0.115100     0.259100     0.255000    Uiso  ? O
   O76        1.0     0.162500     0.322500     0.400800    Uiso  ? O
   O77        1.0     0.240900     0.115200     0.006500    Uiso  ? O
   O78        1.0     0.177500     0.162600     0.152300    Uiso  ? O
   O79        1.0     0.259700     0.384600     0.504900    Uiso  ? O
   O80        1.0     0.321900     0.337400     0.655100    Uiso  ? O
