
#======================================================================
# CRYSTAL DATA
#----------------------------------------------------------------------
data_VESTA_phase_1

_chemical_name_common                  'CAU-10-OH-opt'
_cell_length_a                         21.571365
_cell_length_b                         21.552349
_cell_length_c                         9.849947
_cell_angle_alpha                      90.232147
_cell_angle_beta                       90.166924
_cell_angle_gamma                      92.748863
_cell_volume                           4574.045279
_space_group_name_H-M_alt              'P 1'
_space_group_IT_number                 1

loop_
_space_group_symop_operation_xyz
   'x, y, z'

loop_
   _atom_site_label
   _atom_site_occupancy
   _atom_site_fract_x
   _atom_site_fract_y
   _atom_site_fract_z
   _atom_site_adp_type
   _atom_site_U_iso_or_equiv
   _atom_site_type_symbol
   Al1        1.0     0.313069     0.746214     0.635767    Uiso  ? Al
   Al2        1.0     0.167042     0.743089     0.131802    Uiso  ? Al
   Al3        1.0     0.245426     0.817862     0.888923    Uiso  ? Al
   Al4        1.0     0.234559     0.671435     0.389934    Uiso  ? Al
   Al5        1.0     0.667634     0.745818     0.626508    Uiso  ? Al
   Al6        1.0     0.813462     0.751155     0.123694    Uiso  ? Al
   Al7        1.0     0.735122     0.675652     0.366145    Uiso  ? Al
   Al8        1.0     0.744750     0.822711     0.872318    Uiso  ? Al
   Al9        1.0     0.824689     0.251511     0.129008    Uiso  ? Al
   Al10       1.0     0.678054     0.246573     0.628847    Uiso  ? Al
   Al11       1.0     0.755324     0.321543     0.382866    Uiso  ? Al
   Al12       1.0     0.746087     0.175342     0.884735    Uiso  ? Al
   Al13       1.0     0.177613     0.242436     0.125933    Uiso  ? Al
   Al14       1.0     0.324268     0.247659     0.623686    Uiso  ? Al
   Al15       1.0     0.247419     0.172195     0.870374    Uiso  ? Al
   Al16       1.0     0.253902     0.318358     0.373439    Uiso  ? Al
   H1         1.0     0.380509     0.653311     0.142603    Uiso  ? H
   H2         1.0     0.213268     0.745561     0.711269    Uiso  ? H
   H3         1.0     0.488886     0.728071     0.478860    Uiso  ? H
   H4         1.0     0.099638     0.863552     0.669316    Uiso  ? H
   H5         1.0     0.513057     0.629821     0.943137    Uiso  ? H
   H6         1.0     0.266153     0.744158     0.214178    Uiso  ? H
   H7         1.0     0.990488     0.761479     0.968370    Uiso  ? H
   H8         1.0     0.142858     0.522090     0.682830    Uiso  ? H
   H9         1.0     0.351088     0.893516     0.409998    Uiso  ? H
   H10        1.0     0.241021     0.716931     0.960545    Uiso  ? H
   H11        1.0     0.265719     0.996900     0.727855    Uiso  ? H
   H12        1.0     0.155988     0.589740     0.879810    Uiso  ? H
   H13        1.0     0.238961     0.772631     0.461199    Uiso  ? H
   H14        1.0     0.223304     0.496483     0.233019    Uiso  ? H
   H15        1.0     0.081059     0.649326     0.619330    Uiso  ? H
   H16        1.0     0.989197     0.726609     0.274832    Uiso  ? H
   H17        1.0     0.397929     0.862250     0.094484    Uiso  ? H
   H18        1.0     0.014832     0.622294     0.802365    Uiso  ? H
   H19        1.0     0.492004     0.761493     0.784979    Uiso  ? H
   H20        1.0     0.421016     0.549109     0.981317    Uiso  ? H
   H21        1.0     0.159527     0.896017     0.384639    Uiso  ? H
   H22        1.0     0.223068     0.992580     0.024064    Uiso  ? H
   H23        1.0     0.355928     0.602971     0.840358    Uiso  ? H
   H24        1.0     0.260069     0.491253     0.534979    Uiso  ? H
   H25        1.0     0.598160     0.864230     0.091023    Uiso  ? H
   H26        1.0     0.738805     0.775400     0.446921    Uiso  ? H
   H27        1.0     0.462818     0.920272     0.242267    Uiso  ? H
   H28        1.0     0.880842     0.651919     0.608483    Uiso  ? H
   H29        1.0     0.742297     0.722005     0.941813    Uiso  ? H
   H30        1.0     0.655230     0.594679     0.869751    Uiso  ? H
   H31        1.0     0.712308     0.750318     0.192741    Uiso  ? H
   H32        1.0     0.723432     0.499630     0.519154    Uiso  ? H
   H33        1.0     0.642050     0.529029     0.066675    Uiso  ? H
   H34        1.0     0.871514     0.902080     0.322069    Uiso  ? H
   H35        1.0     0.769892     0.750463     0.693143    Uiso  ? H
   H36        1.0     0.760260     0.999908     0.037315    Uiso  ? H
   H37        1.0     0.899975     0.869568     0.666465    Uiso  ? H
   H38        1.0     0.968462     0.927028     0.517169    Uiso  ? H
   H39        1.0     0.580864     0.656942     0.127641    Uiso  ? H
   H40        1.0     0.858008     0.605932     0.915683    Uiso  ? H
   H41        1.0     0.759471     0.496448     0.218075    Uiso  ? H
   H42        1.0     0.923248     0.550312     0.776025    Uiso  ? H
   H43        1.0     0.656494     0.896689     0.374126    Uiso  ? H
   H44        1.0     0.724722     0.997140     0.728400    Uiso  ? H
   H45        1.0     0.549371     0.402800     0.990850    Uiso  ? H
   H46        1.0     0.891856     0.148786     0.643798    Uiso  ? H
   H47        1.0     0.724598     0.249192     0.204775    Uiso  ? H
   H48        1.0     0.001257     0.229464     0.972237    Uiso  ? H
   H49        1.0     0.607610     0.353707     0.153926    Uiso  ? H
   H50        1.0     0.025508     0.114322     0.454097    Uiso  ? H
   H51        1.0     0.777817     0.247993     0.707726    Uiso  ? H
   H52        1.0     0.501407     0.266179     0.475375    Uiso  ? H
   H53        1.0     0.635245     0.035382     0.192233    Uiso  ? H
   H54        1.0     0.872127     0.406967     0.921273    Uiso  ? H
   H55        1.0     0.751309     0.220767     0.454685    Uiso  ? H
   H56        1.0     0.659577     0.097038     0.382249    Uiso  ? H
   H57        1.0     0.752252     0.277101     0.952460    Uiso  ? H
   H58        1.0     0.594970     0.162631     0.127990    Uiso  ? H
   H59        1.0     0.499496     0.223714     0.771088    Uiso  ? H
   H60        1.0     0.910723     0.357881     0.607094    Uiso  ? H
   H61        1.0     0.461067     0.157989     0.325079    Uiso  ? H
   H62        1.0     0.999511     0.261983     0.280913    Uiso  ? H
   H63        1.0     0.936659     0.041246     0.468907    Uiso  ? H
   H64        1.0     0.667663     0.395085     0.874107    Uiso  ? H
   H65        1.0     0.875065     0.102816     0.326700    Uiso  ? H
   H66        1.0     0.110379     0.351945     0.595706    Uiso  ? H
   H67        1.0     0.249754     0.272578     0.946965    Uiso  ? H
   H68        1.0     0.054546     0.408038     0.751614    Uiso  ? H
   H69        1.0     0.394916     0.165202     0.123683    Uiso  ? H
   H70        1.0     0.253240     0.217283     0.442541    Uiso  ? H
   H71        1.0     0.166864     0.096565     0.373072    Uiso  ? H
   H72        1.0     0.223166     0.244326     0.693284    Uiso  ? H
   H73        1.0     0.153437     0.035240     0.572665    Uiso  ? H
   H74        1.0     0.370440     0.403955     0.839636    Uiso  ? H
   H75        1.0     0.279387     0.247778     0.191528    Uiso  ? H
   H76        1.0     0.407542     0.354481     0.145436    Uiso  ? H
   H77        1.0     0.091992     0.144568     0.635188    Uiso  ? H
   H78        1.0     0.352673     0.093971     0.391959    Uiso  ? H
   H79        1.0     0.396979     0.028772     0.226876    Uiso  ? H
   H80        1.0     0.166643     0.390029     0.878865    Uiso  ? H
   C1         1.0     0.441363     0.846726     0.052593    Uiso  ? C
   C2         1.0     0.439360     0.809058     0.936208    Uiso  ? C
   C3         1.0     0.378472     0.794441     0.870026    Uiso  ? C
   C4         1.0     0.493849     0.789486     0.877104    Uiso  ? C
   C5         1.0     0.498454     0.865765     0.110371    Uiso  ? C
   C6         1.0     0.038022     0.661797     0.570146    Uiso  ? C
   C7         1.0     0.040914     0.688587     0.440625    Uiso  ? C
   C8         1.0     0.101808     0.696271     0.369953    Uiso  ? C
   C9         1.0     0.986834     0.705108     0.374545    Uiso  ? C
   C10        1.0     0.980507     0.650629     0.631870    Uiso  ? C
   C11        1.0     0.170963     0.939292     0.331539    Uiso  ? C
   C12        1.0     0.192424     0.938357     0.197823    Uiso  ? C
   C13        1.0     0.199281     0.878109     0.125762    Uiso  ? C
   C14        1.0     0.206230     0.993699     0.127960    Uiso  ? C
   C15        1.0     0.164396     0.996302     0.397532    Uiso  ? C
   C16        1.0     0.342860     0.557086     0.799431    Uiso  ? C
   C17        1.0     0.304236     0.552466     0.684554    Uiso  ? C
   C18        1.0     0.285854     0.610890     0.619456    Uiso  ? C
   C19        1.0     0.288443     0.494804     0.626332    Uiso  ? C
   C20        1.0     0.366157     0.503779     0.856968    Uiso  ? C
   C21        1.0     0.054544     0.847839     0.709081    Uiso  ? C
   C22        1.0     0.050884     0.809074     0.823182    Uiso  ? C
   C23        1.0     0.109263     0.792681     0.892959    Uiso  ? C
   C24        1.0     0.993368     0.790575     0.878460    Uiso  ? C
   C25        1.0     0.000349     0.869051     0.649865    Uiso  ? C
   C26        1.0     0.425608     0.665751     0.187684    Uiso  ? C
   C27        1.0     0.429085     0.692524     0.317153    Uiso  ? C
   C28        1.0     0.370705     0.701488     0.393721    Uiso  ? C
   C29        1.0     0.486525     0.707641     0.377720    Uiso  ? C
   C30        1.0     0.480106     0.654509     0.117960    Uiso  ? C
   C31        1.0     0.338176     0.937975     0.451538    Uiso  ? C
   C32        1.0     0.306101     0.939622     0.574512    Uiso  ? C
   C33        1.0     0.292493     0.880411     0.648316    Uiso  ? C
   C34        1.0     0.289916     0.995986     0.631230    Uiso  ? C
   C35        1.0     0.354737     0.993222     0.384561    Uiso  ? C
   C36        1.0     0.167917     0.546630     0.929194    Uiso  ? C
   C37        1.0     0.189860     0.548862     0.063502    Uiso  ? C
   C38        1.0     0.193115     0.608848     0.140462    Uiso  ? C
   C39        1.0     0.205900     0.494513     0.129258    Uiso  ? C
   C40        1.0     0.160795     0.489472     0.862034    Uiso  ? C
   C41        1.0     0.537800     0.667581     0.178793    Uiso  ? C
   C42        1.0     0.540824     0.693551     0.309729    Uiso  ? C
   C43        1.0     0.601958     0.701676     0.381144    Uiso  ? C
   C44        1.0     0.942736     0.851838     0.707056    Uiso  ? C
   C45        1.0     0.939586     0.812806     0.820727    Uiso  ? C
   C46        1.0     0.878461     0.798688     0.886462    Uiso  ? C
   C47        1.0     0.844535     0.560371     0.956719    Uiso  ? C
   C48        1.0     0.805000     0.556549     0.069722    Uiso  ? C
   C49        1.0     0.785506     0.615354     0.132456    Uiso  ? C
   C50        1.0     0.788767     0.499319     0.128463    Uiso  ? C
   C51        1.0     0.867986     0.506552     0.901128    Uiso  ? C
   C52        1.0     0.668454     0.940537     0.425352    Uiso  ? C
   C53        1.0     0.692219     0.941056     0.557662    Uiso  ? C
   C54        1.0     0.699740     0.881569     0.631176    Uiso  ? C
   C55        1.0     0.706276     0.997127     0.625542    Uiso  ? C
   C56        1.0     0.659196     0.996765     0.359373    Uiso  ? C
   C57        1.0     0.925965     0.663591     0.563532    Uiso  ? C
   C58        1.0     0.929467     0.691159     0.435357    Uiso  ? C
   C59        1.0     0.871018     0.702484     0.360223    Uiso  ? C
   C60        1.0     0.553437     0.847236     0.050372    Uiso  ? C
   C61        1.0     0.550824     0.809474     0.933863    Uiso  ? C
   C62        1.0     0.609547     0.795632     0.862983    Uiso  ? C
   C63        1.0     0.667487     0.551294     0.821423    Uiso  ? C
   C64        1.0     0.689345     0.552743     0.687344    Uiso  ? C
   C65        1.0     0.692136     0.612367     0.610527    Uiso  ? C
   C66        1.0     0.705923     0.498171     0.622603    Uiso  ? C
   C67        1.0     0.660992     0.494638     0.889714    Uiso  ? C
   C68        1.0     0.854779     0.945817     0.284907    Uiso  ? C
   C69        1.0     0.813117     0.945248     0.175610    Uiso  ? C
   C70        1.0     0.795445     0.885050     0.108593    Uiso  ? C
   C71        1.0     0.792126     0.000526     0.123107    Uiso  ? C
   C72        1.0     0.876652     0.002211     0.341698    Uiso  ? C
   C73        1.0     0.952752     0.341319     0.560984    Uiso  ? C
   C74        1.0     0.949225     0.307480     0.439329    Uiso  ? C
   C75        1.0     0.888444     0.297573     0.368636    Uiso  ? C
   C76        1.0     0.002807     0.287353     0.376483    Uiso  ? C
   C77        1.0     0.010805     0.356562     0.619436    Uiso  ? C
   C78        1.0     0.551801     0.171993     0.075958    Uiso  ? C
   C79        1.0     0.553134     0.193425     0.941985    Uiso  ? C
   C80        1.0     0.613536     0.200835     0.869020    Uiso  ? C
   C81        1.0     0.498205     0.206616     0.874829    Uiso  ? C
   C82        1.0     0.495126     0.163739     0.143490    Uiso  ? C
   C83        1.0     0.674510     0.439639     0.823031    Uiso  ? C
   C84        1.0     0.697042     0.441591     0.690132    Uiso  ? C
   C85        1.0     0.707903     0.382043     0.618366    Uiso  ? C
   C86        1.0     0.857044     0.057996     0.288012    Uiso  ? C
   C87        1.0     0.814754     0.056691     0.179009    Uiso  ? C
   C88        1.0     0.797915     0.116131     0.115688    Uiso  ? C
   C89        1.0     0.562416     0.339841     0.196439    Uiso  ? C
   C90        1.0     0.559974     0.307126     0.319122    Uiso  ? C
   C91        1.0     0.619011     0.294054     0.390055    Uiso  ? C
   C92        1.0     0.503033     0.290262     0.378548    Uiso  ? C
   C93        1.0     0.507574     0.355810     0.132088    Uiso  ? C
   C94        1.0     0.937154     0.160963     0.688231    Uiso  ? C
   C95        1.0     0.940971     0.191301     0.814128    Uiso  ? C
   C96        1.0     0.882498     0.203840     0.888288    Uiso  ? C
   C97        1.0     0.998556     0.206102     0.874176    Uiso  ? C
   C98        1.0     0.991468     0.145766     0.622133    Uiso  ? C
   C99        1.0     0.852187     0.448959     0.960199    Uiso  ? C
   C100       1.0     0.813256     0.445771     0.073638    Uiso  ? C
   C101       1.0     0.801647     0.385088     0.142761    Uiso  ? C
   C102       1.0     0.670053     0.052913     0.429059    Uiso  ? C
   C103       1.0     0.693385     0.052880     0.562142    Uiso  ? C
   C104       1.0     0.701214     0.112477     0.638933    Uiso  ? C
   C105       1.0     0.049182     0.158366     0.683054    Uiso  ? C
   C106       1.0     0.052551     0.188152     0.809980    Uiso  ? C
   C107       1.0     0.113519     0.197049     0.881342    Uiso  ? C
   C108       1.0     0.450300     0.339972     0.192137    Uiso  ? C
   C109       1.0     0.448381     0.307530     0.315202    Uiso  ? C
   C110       1.0     0.387837     0.294980     0.384376    Uiso  ? C
   C111       1.0     0.339413     0.050016     0.440967    Uiso  ? C
   C112       1.0     0.307176     0.051127     0.564721    Uiso  ? C
   C113       1.0     0.294831     0.111552     0.631097    Uiso  ? C
   C114       1.0     0.174009     0.434828     0.929465    Uiso  ? C
   C115       1.0     0.196721     0.437507     0.062501    Uiso  ? C
   C116       1.0     0.207615     0.378404     0.135114    Uiso  ? C
   C117       1.0     0.439806     0.173951     0.074752    Uiso  ? C
   C118       1.0     0.441550     0.195104     0.940375    Uiso  ? C
   C119       1.0     0.382672     0.201786     0.863647    Uiso  ? C
   C120       1.0     0.064622     0.338183     0.555125    Uiso  ? C
   C121       1.0     0.060448     0.303718     0.434000    Uiso  ? C
   C122       1.0     0.118641     0.290168     0.361777    Uiso  ? C
   C123       1.0     0.174741     0.051691     0.325858    Uiso  ? C
   C124       1.0     0.195176     0.050212     0.190701    Uiso  ? C
   C125       1.0     0.201908     0.109118     0.112221    Uiso  ? C
   C126       1.0     0.350741     0.445609     0.798596    Uiso  ? C
   C127       1.0     0.312613     0.441625     0.683217    Uiso  ? C
   C128       1.0     0.301591     0.380922     0.612766    Uiso  ? C
   O1         1.0     0.503103     0.903304     0.222164    Uiso  ? O
   O2         1.0     0.974218     0.624810     0.759649    Uiso  ? O
   O3         1.0     0.146504     0.994457     0.530704    Uiso  ? O
   O4         1.0     0.404919     0.506188     0.966422    Uiso  ? O
   O5         1.0     0.007059     0.906948     0.539895    Uiso  ? O
   O6         1.0     0.473422     0.627888     0.990553    Uiso  ? O
   O7         1.0     0.387331     0.987874     0.265409    Uiso  ? O
   O8         1.0     0.138255     0.482863     0.731535    Uiso  ? O
   O9         1.0     0.907050     0.507576     0.792768    Uiso  ? O
   O10        1.0     0.638415     0.993601     0.228214    Uiso  ? O
   O11        1.0     0.639134     0.488937     0.020336    Uiso  ? O
   O12        1.0     0.918097     0.999605     0.447636    Uiso  ? O
   O13        1.0     0.012421     0.390638     0.736577    Uiso  ? O
   O14        1.0     0.496480     0.143084     0.275392    Uiso  ? O
   O15        1.0     0.507239     0.387625     0.012644    Uiso  ? O
   O16        1.0     0.985042     0.116157     0.497329    Uiso  ? O
   O17        1.0     0.376825     0.758097     0.767126    Uiso  ? O
   O18        1.0     0.332120     0.820932     0.919883    Uiso  ? O
   O19        1.0     0.250771     0.752521     0.765390    Uiso  ? O
   O20        1.0     0.103452     0.728011     0.260733    Uiso  ? O
   O21        1.0     0.147162     0.669350     0.423413    Uiso  ? O
   O22        1.0     0.228060     0.735817     0.264922    Uiso  ? O
   O23        1.0     0.236059     0.878930     0.024227    Uiso  ? O
   O24        1.0     0.167656     0.830974     0.169284    Uiso  ? O
   O25        1.0     0.234783     0.753705     0.015521    Uiso  ? O
   O26        1.0     0.244984     0.608787     0.524399    Uiso  ? O
   O27        1.0     0.314287     0.659982     0.663098    Uiso  ? O
   O28        1.0     0.245683     0.735996     0.515651    Uiso  ? O
   O29        1.0     0.106067     0.754628     0.992682    Uiso  ? O
   O30        1.0     0.158969     0.819708     0.848358    Uiso  ? O
   O31        1.0     0.373866     0.737230     0.497103    Uiso  ? O
   O32        1.0     0.322187     0.671433     0.349802    Uiso  ? O
   O33        1.0     0.259303     0.881741     0.754871    Uiso  ? O
   O34        1.0     0.316817     0.832742     0.597687    Uiso  ? O
   O35        1.0     0.221336     0.608902     0.254461    Uiso  ? O
   O36        1.0     0.166560     0.654646     0.087167    Uiso  ? O
   O37        1.0     0.603262     0.731526     0.493177    Uiso  ? O
   O38        1.0     0.647662     0.676246     0.324506    Uiso  ? O
   O39        1.0     0.730279     0.737544     0.498480    Uiso  ? O
   O40        1.0     0.877123     0.762834     0.989377    Uiso  ? O
   O41        1.0     0.831967     0.824941     0.835231    Uiso  ? O
   O42        1.0     0.749258     0.758679     0.998804    Uiso  ? O
   O43        1.0     0.744757     0.613310     0.227062    Uiso  ? O
   O44        1.0     0.813031     0.664579     0.086768    Uiso  ? O
   O45        1.0     0.748308     0.742547     0.248780    Uiso  ? O
   O46        1.0     0.735264     0.883478     0.735215    Uiso  ? O
   O47        1.0     0.669220     0.833576     0.585361    Uiso  ? O
   O48        1.0     0.733616     0.756391     0.749248    Uiso  ? O
   O49        1.0     0.874370     0.739841     0.260099    Uiso  ? O
   O50        1.0     0.822343     0.672659     0.401279    Uiso  ? O
   O51        1.0     0.607139     0.756789     0.763759    Uiso  ? O
   O52        1.0     0.658257     0.825036     0.905298    Uiso  ? O
   O53        1.0     0.720483     0.612683     0.496839    Uiso  ? O
   O54        1.0     0.665275     0.657982     0.663219    Uiso  ? O
   O55        1.0     0.758875     0.885306     0.006459    Uiso  ? O
   O56        1.0     0.820122     0.837449     0.157198    Uiso  ? O
   O57        1.0     0.887402     0.263787     0.261601    Uiso  ? O
   O58        1.0     0.842473     0.324758     0.418030    Uiso  ? O
   O59        1.0     0.762075     0.256394     0.258904    Uiso  ? O
   O60        1.0     0.614767     0.233176     0.760708    Uiso  ? O
   O61        1.0     0.659018     0.173547     0.920619    Uiso  ? O
   O62        1.0     0.740031     0.239546     0.759442    Uiso  ? O
   O63        1.0     0.744049     0.383848     0.516008    Uiso  ? O
   O64        1.0     0.678720     0.333984     0.664627    Uiso  ? O
   O65        1.0     0.744681     0.257545     0.509369    Uiso  ? O
   O66        1.0     0.756940     0.114481     0.021055    Uiso  ? O
   O67        1.0     0.827254     0.164752     0.159183    Uiso  ? O
   O68        1.0     0.757971     0.240791     0.008635    Uiso  ? O
   O69        1.0     0.616267     0.258270     0.493111    Uiso  ? O
   O70        1.0     0.668012     0.321103     0.341913    Uiso  ? O
   O71        1.0     0.886043     0.240872     0.989515    Uiso  ? O
   O72        1.0     0.833625     0.174532     0.844113    Uiso  ? O
   O73        1.0     0.767892     0.384322     0.248973    Uiso  ? O
   O74        1.0     0.827580     0.338423     0.091212    Uiso  ? O
   O75        1.0     0.731569     0.112124     0.750476    Uiso  ? O
   O76        1.0     0.675823     0.159299     0.587047    Uiso  ? O
   O77        1.0     0.114560     0.228979     0.990606    Uiso  ? O
   O78        1.0     0.159538     0.170668     0.828095    Uiso  ? O
   O79        1.0     0.241288     0.235005     0.999449    Uiso  ? O
   O80        1.0     0.387095     0.259210     0.487922    Uiso  ? O
   O81        1.0     0.341178     0.321615     0.335538    Uiso  ? O
   O82        1.0     0.259607     0.254043     0.499423    Uiso  ? O
   O83        1.0     0.257467     0.110483     0.731961    Uiso  ? O
   O84        1.0     0.323551     0.159536     0.582671    Uiso  ? O
   O85        1.0     0.259506     0.237895     0.749301    Uiso  ? O
   O86        1.0     0.243247     0.380894     0.238607    Uiso  ? O
   O87        1.0     0.178815     0.329892     0.087199    Uiso  ? O
   O88        1.0     0.243476     0.252714     0.249356    Uiso  ? O
   O89        1.0     0.385033     0.236023     0.758125    Uiso  ? O
   O90        1.0     0.334735     0.171532     0.907879    Uiso  ? O
   O91        1.0     0.116138     0.252450     0.260774    Uiso  ? O
   O92        1.0     0.167538     0.318952     0.405441    Uiso  ? O
   O93        1.0     0.233279     0.108994     0.002239    Uiso  ? O
   O94        1.0     0.174631     0.155321     0.160909    Uiso  ? O
   O95        1.0     0.266014     0.379783     0.508698    Uiso  ? O
   O96        1.0     0.329374     0.334602     0.659049    Uiso  ? O
