
#======================================================================
# CRYSTAL DATA
#----------------------------------------------------------------------
data_VESTA_phase_1

_chemical_name_common                  'MIL-140B'
_cell_length_a                         28.158199
_cell_length_b                         13.467500
_cell_length_c                         7.889000
_cell_angle_alpha                      90.000000
_cell_angle_beta                       93.430000
_cell_angle_gamma                      90.000000
_cell_volume                           2986.311665
_space_group_name_H-M_alt              'P 1'
_space_group_IT_number                 1

loop_
_space_group_symop_operation_xyz
   'x, y, z'

loop_
   _atom_site_label
   _atom_site_occupancy
   _atom_site_fract_x
   _atom_site_fract_y
   _atom_site_fract_z
   _atom_site_adp_type
   _atom_site_U_iso_or_equiv
   _atom_site_type_symbol
   Zr1        1.0     0.048600     0.496200     0.129700    Uiso  ? Zr
   Zr2        1.0     0.048600     0.503800     0.629700    Uiso  ? Zr
   Zr3        1.0     0.548600     0.996200     0.129700    Uiso  ? Zr
   Zr4        1.0     0.548600     0.003800     0.629700    Uiso  ? Zr
   Zr5        1.0     0.951400     0.496100     0.370200    Uiso  ? Zr
   Zr6        1.0     0.951400     0.503900     0.870200    Uiso  ? Zr
   Zr7        1.0     0.451400     0.996100     0.370200    Uiso  ? Zr
   Zr8        1.0     0.451400     0.003900     0.870200    Uiso  ? Zr
   H1         1.0     0.745900     0.239500     0.853500    Uiso  ? H
   H2         1.0     0.745900     0.760500     0.353500    Uiso  ? H
   H3         1.0     0.245900     0.739500     0.853500    Uiso  ? H
   H4         1.0     0.245900     0.260500     0.353500    Uiso  ? H
   H5         1.0     0.679400     0.158600     0.680400    Uiso  ? H
   H6         1.0     0.679400     0.841400     0.180400    Uiso  ? H
   H7         1.0     0.179400     0.658600     0.680400    Uiso  ? H
   H8         1.0     0.179400     0.341400     0.180400    Uiso  ? H
   H9         1.0     0.754400     0.259600     0.146700    Uiso  ? H
   H10        1.0     0.754400     0.740400     0.646700    Uiso  ? H
   H11        1.0     0.254400     0.759600     0.146700    Uiso  ? H
   H12        1.0     0.254400     0.240400     0.646700    Uiso  ? H
   H13        1.0     0.677900     0.163900     0.134600    Uiso  ? H
   H14        1.0     0.677900     0.836100     0.634600    Uiso  ? H
   H15        1.0     0.177900     0.663900     0.134600    Uiso  ? H
   H16        1.0     0.177900     0.336100     0.634600    Uiso  ? H
   H17        1.0     0.820800     0.340700     0.319700    Uiso  ? H
   H18        1.0     0.820800     0.659300     0.819700    Uiso  ? H
   H19        1.0     0.320800     0.840700     0.319700    Uiso  ? H
   H20        1.0     0.320800     0.159300     0.819700    Uiso  ? H
   H21        1.0     0.822400     0.335400     0.865600    Uiso  ? H
   H22        1.0     0.822400     0.664600     0.365600    Uiso  ? H
   H23        1.0     0.322400     0.835400     0.865600    Uiso  ? H
   H24        1.0     0.322400     0.164600     0.365600    Uiso  ? H
   H25        1.0     0.443000     0.657200     0.375400    Uiso  ? H
   H26        1.0     0.443000     0.342800     0.875400    Uiso  ? H
   H27        1.0     0.943000     0.157200     0.375400    Uiso  ? H
   H28        1.0     0.943000     0.842800     0.875400    Uiso  ? H
   H29        1.0     0.411300     0.486600     0.323400    Uiso  ? H
   H30        1.0     0.411300     0.513400     0.823400    Uiso  ? H
   H31        1.0     0.911300     0.986600     0.323400    Uiso  ? H
   H32        1.0     0.911300     0.013400     0.823400    Uiso  ? H
   H33        1.0     0.421400     0.303000     0.350000    Uiso  ? H
   H34        1.0     0.421400     0.697000     0.850000    Uiso  ? H
   H35        1.0     0.921400     0.803000     0.350000    Uiso  ? H
   H36        1.0     0.921400     0.197000     0.850000    Uiso  ? H
   H37        1.0     0.557100     0.342700     0.624500    Uiso  ? H
   H38        1.0     0.557100     0.657300     0.124500    Uiso  ? H
   H39        1.0     0.057100     0.842700     0.624500    Uiso  ? H
   H40        1.0     0.057100     0.157300     0.124500    Uiso  ? H
   H41        1.0     0.578800     0.697000     0.649500    Uiso  ? H
   H42        1.0     0.578800     0.303000     0.149500    Uiso  ? H
   H43        1.0     0.078800     0.197000     0.649500    Uiso  ? H
   H44        1.0     0.078800     0.803000     0.149500    Uiso  ? H
   H45        1.0     0.588900     0.513400     0.676300    Uiso  ? H
   H46        1.0     0.588900     0.486600     0.176300    Uiso  ? H
   H47        1.0     0.088900     0.013400     0.676300    Uiso  ? H
   H48        1.0     0.088900     0.986600     0.176300    Uiso  ? H
   C1         1.0     0.739400     0.235200     0.577000    Uiso  ? C
   C2         1.0     0.739400     0.764800     0.077000    Uiso  ? C
   C3         1.0     0.239400     0.735200     0.577000    Uiso  ? C
   C4         1.0     0.239400     0.264800     0.077000    Uiso  ? C
   C5         1.0     0.696200     0.181700     0.564800    Uiso  ? C
   C6         1.0     0.696200     0.818300     0.064800    Uiso  ? C
   C7         1.0     0.196200     0.681700     0.564800    Uiso  ? C
   C8         1.0     0.196200     0.318300     0.064800    Uiso  ? C
   C9         1.0     0.737900     0.237400     0.264200    Uiso  ? C
   C10        1.0     0.737900     0.762600     0.764200    Uiso  ? C
   C11        1.0     0.237900     0.737400     0.264200    Uiso  ? C
   C12        1.0     0.237900     0.262600     0.764200    Uiso  ? C
   C13        1.0     0.695800     0.185100     0.256400    Uiso  ? C
   C14        1.0     0.695800     0.814900     0.756400    Uiso  ? C
   C15        1.0     0.195800     0.685100     0.256400    Uiso  ? C
   C16        1.0     0.195800     0.314900     0.756400    Uiso  ? C
   C17        1.0     0.674700     0.156800     0.408100    Uiso  ? C
   C18        1.0     0.674700     0.843200     0.908100    Uiso  ? C
   C19        1.0     0.174700     0.656800     0.408100    Uiso  ? C
   C20        1.0     0.174700     0.343200     0.908100    Uiso  ? C
   C21        1.0     0.629800     0.097700     0.399400    Uiso  ? C
   C22        1.0     0.629800     0.902300     0.899400    Uiso  ? C
   C23        1.0     0.129800     0.597700     0.399400    Uiso  ? C
   C24        1.0     0.129800     0.402300     0.899400    Uiso  ? C
   C25        1.0     0.804000     0.317500     0.435400    Uiso  ? C
   C26        1.0     0.804000     0.682500     0.935400    Uiso  ? C
   C27        1.0     0.304000     0.817500     0.435400    Uiso  ? C
   C28        1.0     0.304000     0.182500     0.935400    Uiso  ? C
   C29        1.0     0.762400     0.261600     0.736000    Uiso  ? C
   C30        1.0     0.762400     0.738400     0.236000    Uiso  ? C
   C31        1.0     0.262400     0.761600     0.736000    Uiso  ? C
   C32        1.0     0.262400     0.238400     0.236000    Uiso  ? C
   C33        1.0     0.804500     0.314100     0.743800    Uiso  ? C
   C34        1.0     0.804500     0.685900     0.243800    Uiso  ? C
   C35        1.0     0.304500     0.814100     0.743800    Uiso  ? C
   C36        1.0     0.304500     0.185900     0.243800    Uiso  ? C
   C37        1.0     0.825500     0.342500     0.592000    Uiso  ? C
   C38        1.0     0.825500     0.657500     0.092000    Uiso  ? C
   C39        1.0     0.325500     0.842500     0.592000    Uiso  ? C
   C40        1.0     0.325500     0.157500     0.092000    Uiso  ? C
   C41        1.0     0.870300     0.402100     0.600600    Uiso  ? C
   C42        1.0     0.870300     0.597900     0.100600    Uiso  ? C
   C43        1.0     0.370300     0.902100     0.600600    Uiso  ? C
   C44        1.0     0.370300     0.097900     0.100600    Uiso  ? C
   C45        1.0     0.760900     0.263900     0.423200    Uiso  ? C
   C46        1.0     0.760900     0.736100     0.923200    Uiso  ? C
   C47        1.0     0.260900     0.763900     0.423200    Uiso  ? C
   C48        1.0     0.260900     0.236100     0.923200    Uiso  ? C
   C49        1.0     0.443300     0.455100     0.389500    Uiso  ? C
   C50        1.0     0.443300     0.544900     0.889500    Uiso  ? C
   C51        1.0     0.943300     0.955100     0.389500    Uiso  ? C
   C52        1.0     0.943300     0.044900     0.889500    Uiso  ? C
   C53        1.0     0.448600     0.353900     0.404300    Uiso  ? C
   C54        1.0     0.448600     0.646100     0.904300    Uiso  ? C
   C55        1.0     0.948600     0.853900     0.404300    Uiso  ? C
   C56        1.0     0.948600     0.146100     0.904300    Uiso  ? C
   C57        1.0     0.525200     0.375100     0.558800    Uiso  ? C
   C58        1.0     0.525200     0.624900     0.058800    Uiso  ? C
   C59        1.0     0.025200     0.875100     0.558800    Uiso  ? C
   C60        1.0     0.025200     0.124900     0.058800    Uiso  ? C
   C61        1.0     0.520900     0.479400     0.543300    Uiso  ? C
   C62        1.0     0.520900     0.520600     0.043300    Uiso  ? C
   C63        1.0     0.020900     0.979400     0.543300    Uiso  ? C
   C64        1.0     0.020900     0.020600     0.043300    Uiso  ? C
   C65        1.0     0.556800     0.545000     0.610300    Uiso  ? C
   C66        1.0     0.556800     0.455000     0.110300    Uiso  ? C
   C67        1.0     0.056800     0.045000     0.610300    Uiso  ? C
   C68        1.0     0.056800     0.955000     0.110300    Uiso  ? C
   C69        1.0     0.551500     0.646200     0.595400    Uiso  ? C
   C70        1.0     0.551500     0.353800     0.095400    Uiso  ? C
   C71        1.0     0.051500     0.146200     0.595400    Uiso  ? C
   C72        1.0     0.051500     0.853800     0.095400    Uiso  ? C
   C73        1.0     0.510000     0.687100     0.510600    Uiso  ? C
   C74        1.0     0.510000     0.312900     0.010600    Uiso  ? C
   C75        1.0     0.010000     0.187100     0.510600    Uiso  ? C
   C76        1.0     0.010000     0.812900     0.010600    Uiso  ? C
   C77        1.0     0.504400     0.797100     0.503600    Uiso  ? C
   C78        1.0     0.504400     0.202900     0.003600    Uiso  ? C
   C79        1.0     0.004400     0.297100     0.503600    Uiso  ? C
   C80        1.0     0.004400     0.702900     0.003600    Uiso  ? C
   C81        1.0     0.495700     0.202900     0.496200    Uiso  ? C
   C82        1.0     0.495700     0.797100     0.996200    Uiso  ? C
   C83        1.0     0.995700     0.702900     0.496200    Uiso  ? C
   C84        1.0     0.995700     0.297100     0.996200    Uiso  ? C
   C85        1.0     0.490100     0.312900     0.489200    Uiso  ? C
   C86        1.0     0.490100     0.687100     0.989200    Uiso  ? C
   C87        1.0     0.990100     0.812900     0.489200    Uiso  ? C
   C88        1.0     0.990100     0.187100     0.989200    Uiso  ? C
   C89        1.0     0.479200     0.520600     0.456700    Uiso  ? C
   C90        1.0     0.479200     0.479400     0.956700    Uiso  ? C
   C91        1.0     0.979200     0.020600     0.456700    Uiso  ? C
   C92        1.0     0.979200     0.979400     0.956700    Uiso  ? C
   C93        1.0     0.474900     0.624900     0.441100    Uiso  ? C
   C94        1.0     0.474900     0.375100     0.941100    Uiso  ? C
   C95        1.0     0.974900     0.124900     0.441100    Uiso  ? C
   C96        1.0     0.974900     0.875100     0.941100    Uiso  ? C
   O1         1.0     0.612400     0.074900     0.540600    Uiso  ? O
   O2         1.0     0.612400     0.925100     0.040600    Uiso  ? O
   O3         1.0     0.112400     0.574900     0.540600    Uiso  ? O
   O4         1.0     0.112400     0.425100     0.040600    Uiso  ? O
   O5         1.0     0.612600     0.071800     0.252900    Uiso  ? O
   O6         1.0     0.612600     0.928200     0.752900    Uiso  ? O
   O7         1.0     0.112600     0.571800     0.252900    Uiso  ? O
   O8         1.0     0.112600     0.428200     0.752900    Uiso  ? O
   O9         1.0     0.887600     0.425000     0.459400    Uiso  ? O
   O10        1.0     0.887600     0.575000     0.959400    Uiso  ? O
   O11        1.0     0.387600     0.925000     0.459400    Uiso  ? O
   O12        1.0     0.387600     0.075000     0.959400    Uiso  ? O
   O13        1.0     0.887500     0.428200     0.747000    Uiso  ? O
   O14        1.0     0.887500     0.571800     0.247000    Uiso  ? O
   O15        1.0     0.387500     0.928200     0.747000    Uiso  ? O
   O16        1.0     0.387500     0.071800     0.247000    Uiso  ? O
   O17        1.0     0.465200     0.153300     0.402200    Uiso  ? O
   O18        1.0     0.465200     0.846700     0.902200    Uiso  ? O
   O19        1.0     0.965200     0.653300     0.402200    Uiso  ? O
   O20        1.0     0.965200     0.346700     0.902200    Uiso  ? O
   O21        1.0     0.470500     0.835300     0.410300    Uiso  ? O
   O22        1.0     0.470500     0.164700     0.910300    Uiso  ? O
   O23        1.0     0.970500     0.335300     0.410300    Uiso  ? O
   O24        1.0     0.970500     0.664700     0.910300    Uiso  ? O
   O25        1.0     0.529600     0.164700     0.589500    Uiso  ? O
   O26        1.0     0.529600     0.835300     0.089500    Uiso  ? O
   O27        1.0     0.029600     0.664700     0.589500    Uiso  ? O
   O28        1.0     0.029600     0.335300     0.089500    Uiso  ? O
   O29        1.0     0.534900     0.846800     0.597500    Uiso  ? O
   O30        1.0     0.534900     0.153200     0.097500    Uiso  ? O
   O31        1.0     0.034900     0.346800     0.597500    Uiso  ? O
   O32        1.0     0.034900     0.653200     0.097500    Uiso  ? O
   O33        1.0     0.029100     0.493300     0.375400    Uiso  ? O
   O34        1.0     0.029100     0.506700     0.875400    Uiso  ? O
   O35        1.0     0.529100     0.993300     0.375400    Uiso  ? O
   O36        1.0     0.529100     0.006700     0.875400    Uiso  ? O
   O37        1.0     0.970900     0.493300     0.124400    Uiso  ? O
   O38        1.0     0.970900     0.506700     0.624400    Uiso  ? O
   O39        1.0     0.470900     0.993300     0.124400    Uiso  ? O
   O40        1.0     0.470900     0.006700     0.624400    Uiso  ? O
