
#======================================================================
# CRYSTAL DATA
#----------------------------------------------------------------------
data_VESTA_phase_1

_chemical_name_common                  'MIL120-str1'
_cell_length_a                         11.102837
_cell_length_b                         11.142306
_cell_length_c                         7.581124
_cell_angle_alpha                      108.092010
_cell_angle_beta                       107.637482
_cell_angle_gamma                      128.777344
_cell_volume                           515.104624
_space_group_name_H-M_alt              'P 1'
_space_group_IT_number                 1

loop_
_space_group_symop_operation_xyz
   'x, y, z'

loop_
   _atom_site_label
   _atom_site_occupancy
   _atom_site_fract_x
   _atom_site_fract_y
   _atom_site_fract_z
   _atom_site_adp_type
   _atom_site_U_iso_or_equiv
   _atom_site_type_symbol
   Al1        1.0     0.696486     0.292957     0.993430    Uiso  ? Al
   Al2        1.0     0.303514     0.707043     0.006570    Uiso  ? Al
   Al3        1.0     0.500000     0.000000     0.500000    Uiso  ? Al
   Al4        1.0     0.000000     0.500000     0.500000    Uiso  ? Al
   H1         1.0     0.450668     0.458143     0.784499    Uiso  ? H
   H2         1.0     0.549331     0.541857     0.215501    Uiso  ? H
   H3         1.0     0.212790     0.836122     0.884613    Uiso  ? H
   H4         1.0     0.787210     0.163878     0.115387    Uiso  ? H
   H5         1.0     0.979321     0.312106     0.639508    Uiso  ? H
   H6         1.0     0.020679     0.687894     0.360492    Uiso  ? H
   H7         1.0     0.628954     0.078724     0.271944    Uiso  ? H
   H8         1.0     0.371046     0.921276     0.728056    Uiso  ? H
   H9         1.0     0.876742     0.344039     0.819613    Uiso  ? H
   H10        1.0     0.123258     0.655961     0.180387    Uiso  ? H
   C1         1.0     0.570209     0.326530     0.649280    Uiso  ? C
   C2         1.0     0.429791     0.673470     0.350720    Uiso  ? C
   C3         1.0     0.664262     0.412229     0.351587    Uiso  ? C
   C4         1.0     0.335738     0.587771     0.648413    Uiso  ? C
   C5         1.0     0.543446     0.425052     0.581462    Uiso  ? C
   C6         1.0     0.456554     0.574948     0.418538    Uiso  ? C
   C7         1.0     0.571574     0.448927     0.421375    Uiso  ? C
   C8         1.0     0.428426     0.551073     0.578625    Uiso  ? C
   C9         1.0     0.474206     0.478425     0.661841    Uiso  ? C
   C10        1.0     0.525794     0.521575     0.338159    Uiso  ? C
   O1         1.0     0.975682     0.565064     0.296934    Uiso  ? O
   O2         1.0     0.024318     0.434936     0.703066    Uiso  ? O
   O3         1.0     0.433773     0.016945     0.700316    Uiso  ? O
   O4         1.0     0.566227     0.983055     0.299684    Uiso  ? O
   O5         1.0     0.770970     0.244074     0.817320    Uiso  ? O
   O6         1.0     0.229030     0.755926     0.182680    Uiso  ? O
   O7         1.0     0.760995     0.226419     0.181672    Uiso  ? O
   O8         1.0     0.239005     0.773581     0.818328    Uiso  ? O
   O9         1.0     0.663209     0.407725     0.875889    Uiso  ? O
   O10        1.0     0.336791     0.592275     0.124111    Uiso  ? O
   O11        1.0     0.579265     0.311957     0.124107    Uiso  ? O
   O12        1.0     0.420735     0.688043     0.875893    Uiso  ? O
   O13        1.0     0.492447     0.165647     0.473549    Uiso  ? O
   O14        1.0     0.507553     0.834353     0.526451    Uiso  ? O
   O15        1.0     0.828271     0.493060     0.527475    Uiso  ? O
   O16        1.0     0.171729     0.506940     0.472525    Uiso  ? O
