
#======================================================================
# CRYSTAL DATA
#----------------------------------------------------------------------
data_VESTA_phase_1

_chemical_name_common                  'MIL-160'
_cell_length_a                         21.073799
_cell_length_b                         21.073799
_cell_length_c                         10.646900
_cell_angle_alpha                      90.000000
_cell_angle_beta                       90.000000
_cell_angle_gamma                      90.000000
_cell_volume                           4728.341709
_space_group_name_H-M_alt              'P 1'
_space_group_IT_number                 1

loop_
_space_group_symop_operation_xyz
   'x, y, z'

loop_
   _atom_site_label
   _atom_site_occupancy
   _atom_site_fract_x
   _atom_site_fract_y
   _atom_site_fract_z
   _atom_site_adp_type
   _atom_site_U_iso_or_equiv
   _atom_site_type_symbol
   Al1        1.0     0.317000     0.750000     0.625000    Uiso  ? Al
   Al2        1.0     0.817000     0.250000     0.125000    Uiso  ? Al
   Al3        1.0     0.183000     0.750000     0.125000    Uiso  ? Al
   Al4        1.0     0.683000     0.250000     0.625000    Uiso  ? Al
   Al5        1.0     0.250000     0.817000     0.875000    Uiso  ? Al
   Al6        1.0     0.750000     0.317000     0.375000    Uiso  ? Al
   Al7        1.0     0.250000     0.683000     0.375000    Uiso  ? Al
   Al8        1.0     0.750000     0.183000     0.875000    Uiso  ? Al
   Al9        1.0     0.683000     0.750000     0.625000    Uiso  ? Al
   Al10       1.0     0.183000     0.250000     0.125000    Uiso  ? Al
   Al11       1.0     0.817000     0.750000     0.125000    Uiso  ? Al
   Al12       1.0     0.317000     0.250000     0.625000    Uiso  ? Al
   Al13       1.0     0.750000     0.683000     0.375000    Uiso  ? Al
   Al14       1.0     0.250000     0.183000     0.875000    Uiso  ? Al
   Al15       1.0     0.750000     0.817000     0.875000    Uiso  ? Al
   Al16       1.0     0.250000     0.317000     0.375000    Uiso  ? Al
   H1         1.0     0.148500     0.565600     0.920100    Uiso  ? H
   H2         1.0     0.648500     0.065600     0.420100    Uiso  ? H
   H3         1.0     0.351500     0.934400     0.420100    Uiso  ? H
   H4         1.0     0.851500     0.434400     0.920100    Uiso  ? H
   H5         1.0     0.434400     0.648500     0.170100    Uiso  ? H
   H6         1.0     0.934400     0.148500     0.670100    Uiso  ? H
   H7         1.0     0.065600     0.851500     0.670100    Uiso  ? H
   H8         1.0     0.565600     0.351500     0.170100    Uiso  ? H
   H9         1.0     0.351500     0.565600     0.829900    Uiso  ? H
   H10        1.0     0.851500     0.065600     0.329900    Uiso  ? H
   H11        1.0     0.148500     0.934400     0.329900    Uiso  ? H
   H12        1.0     0.648500     0.434400     0.829900    Uiso  ? H
   H13        1.0     0.065600     0.648500     0.579900    Uiso  ? H
   H14        1.0     0.565600     0.148500     0.079900    Uiso  ? H
   H15        1.0     0.434400     0.851500     0.079900    Uiso  ? H
   H16        1.0     0.934400     0.351500     0.579900    Uiso  ? H
   H17        1.0     0.851500     0.934400     0.329900    Uiso  ? H
   H18        1.0     0.351500     0.434400     0.829900    Uiso  ? H
   H19        1.0     0.648500     0.565600     0.829900    Uiso  ? H
   H20        1.0     0.148500     0.065600     0.329900    Uiso  ? H
   H21        1.0     0.565600     0.851500     0.079900    Uiso  ? H
   H22        1.0     0.065600     0.351500     0.579900    Uiso  ? H
   H23        1.0     0.934400     0.648500     0.579900    Uiso  ? H
   H24        1.0     0.434400     0.148500     0.079900    Uiso  ? H
   H25        1.0     0.648500     0.934400     0.420100    Uiso  ? H
   H26        1.0     0.148500     0.434400     0.920100    Uiso  ? H
   H27        1.0     0.851500     0.565600     0.920100    Uiso  ? H
   H28        1.0     0.351500     0.065600     0.420100    Uiso  ? H
   H29        1.0     0.934400     0.851500     0.670100    Uiso  ? H
   H30        1.0     0.434400     0.351500     0.170100    Uiso  ? H
   H31        1.0     0.565600     0.648500     0.170100    Uiso  ? H
   H32        1.0     0.065600     0.148500     0.670100    Uiso  ? H
   H33        1.0     0.718100     0.218100     0.250000    Uiso  ? H
   H34        1.0     0.218100     0.718100     0.750000    Uiso  ? H
   H35        1.0     0.781900     0.281900     0.750000    Uiso  ? H
   H36        1.0     0.281900     0.781900     0.250000    Uiso  ? H
   H37        1.0     0.781900     0.218100     0.500000    Uiso  ? H
   H38        1.0     0.281900     0.718100     0.000000    Uiso  ? H
   H39        1.0     0.718100     0.281900     0.000000    Uiso  ? H
   H40        1.0     0.218100     0.781900     0.500000    Uiso  ? H
   H41        1.0     0.281900     0.281900     0.000000    Uiso  ? H
   H42        1.0     0.781900     0.781900     0.500000    Uiso  ? H
   H43        1.0     0.218100     0.218100     0.500000    Uiso  ? H
   H44        1.0     0.718100     0.718100     0.000000    Uiso  ? H
   H45        1.0     0.218100     0.281900     0.750000    Uiso  ? H
   H46        1.0     0.718100     0.781900     0.250000    Uiso  ? H
   H47        1.0     0.281900     0.218100     0.250000    Uiso  ? H
   H48        1.0     0.781900     0.718100     0.750000    Uiso  ? H
   C1         1.0     0.385700     0.791000     0.845200    Uiso  ? C
   C2         1.0     0.448200     0.800700     0.902300    Uiso  ? C
   C3         1.0     0.466500     0.831200     0.011200    Uiso  ? C
   C4         1.0     0.885700     0.291000     0.345200    Uiso  ? C
   C5         1.0     0.948200     0.300700     0.402300    Uiso  ? C
   C6         1.0     0.966500     0.331200     0.511200    Uiso  ? C
   C7         1.0     0.114300     0.709000     0.345200    Uiso  ? C
   C8         1.0     0.051800     0.699300     0.402300    Uiso  ? C
   C9         1.0     0.033500     0.668800     0.511200    Uiso  ? C
   C10        1.0     0.614300     0.209000     0.845200    Uiso  ? C
   C11        1.0     0.551800     0.199300     0.902300    Uiso  ? C
   C12        1.0     0.533500     0.168800     0.011200    Uiso  ? C
   C13        1.0     0.209000     0.885700     0.095200    Uiso  ? C
   C14        1.0     0.199300     0.948200     0.152300    Uiso  ? C
   C15        1.0     0.168800     0.966500     0.261200    Uiso  ? C
   C16        1.0     0.709000     0.385700     0.595200    Uiso  ? C
   C17        1.0     0.699300     0.448200     0.652300    Uiso  ? C
   C18        1.0     0.668800     0.466500     0.761200    Uiso  ? C
   C19        1.0     0.291000     0.614300     0.595200    Uiso  ? C
   C20        1.0     0.300700     0.551800     0.652300    Uiso  ? C
   C21        1.0     0.331200     0.533500     0.761200    Uiso  ? C
   C22        1.0     0.791000     0.114300     0.095200    Uiso  ? C
   C23        1.0     0.800700     0.051800     0.152300    Uiso  ? C
   C24        1.0     0.831200     0.033500     0.261200    Uiso  ? C
   C25        1.0     0.114300     0.791000     0.904800    Uiso  ? C
   C26        1.0     0.051800     0.800700     0.847700    Uiso  ? C
   C27        1.0     0.033500     0.831200     0.738800    Uiso  ? C
   C28        1.0     0.614300     0.291000     0.404800    Uiso  ? C
   C29        1.0     0.551800     0.300700     0.347700    Uiso  ? C
   C30        1.0     0.533500     0.331200     0.238800    Uiso  ? C
   C31        1.0     0.385700     0.709000     0.404800    Uiso  ? C
   C32        1.0     0.448200     0.699300     0.347700    Uiso  ? C
   C33        1.0     0.466500     0.668800     0.238800    Uiso  ? C
   C34        1.0     0.885700     0.209000     0.904800    Uiso  ? C
   C35        1.0     0.948200     0.199300     0.847700    Uiso  ? C
   C36        1.0     0.966500     0.168800     0.738800    Uiso  ? C
   C37        1.0     0.291000     0.885700     0.654800    Uiso  ? C
   C38        1.0     0.300700     0.948200     0.597700    Uiso  ? C
   C39        1.0     0.331200     0.966500     0.488800    Uiso  ? C
   C40        1.0     0.791000     0.385700     0.154800    Uiso  ? C
   C41        1.0     0.800700     0.448200     0.097700    Uiso  ? C
   C42        1.0     0.831200     0.466500     0.988800    Uiso  ? C
   C43        1.0     0.209000     0.614300     0.154800    Uiso  ? C
   C44        1.0     0.199300     0.551800     0.097700    Uiso  ? C
   C45        1.0     0.168800     0.533500     0.988800    Uiso  ? C
   C46        1.0     0.709000     0.114300     0.654800    Uiso  ? C
   C47        1.0     0.699300     0.051800     0.597700    Uiso  ? C
   C48        1.0     0.668800     0.033500     0.488800    Uiso  ? C
   C49        1.0     0.614300     0.709000     0.404800    Uiso  ? C
   C50        1.0     0.551800     0.699300     0.347700    Uiso  ? C
   C51        1.0     0.533500     0.668800     0.238800    Uiso  ? C
   C52        1.0     0.114300     0.209000     0.904800    Uiso  ? C
   C53        1.0     0.051800     0.199300     0.847700    Uiso  ? C
   C54        1.0     0.033500     0.168800     0.738800    Uiso  ? C
   C55        1.0     0.885700     0.791000     0.904800    Uiso  ? C
   C56        1.0     0.948200     0.800700     0.847700    Uiso  ? C
   C57        1.0     0.966500     0.831200     0.738800    Uiso  ? C
   C58        1.0     0.385700     0.291000     0.404800    Uiso  ? C
   C59        1.0     0.448200     0.300700     0.347700    Uiso  ? C
   C60        1.0     0.466500     0.331200     0.238800    Uiso  ? C
   C61        1.0     0.791000     0.614300     0.154800    Uiso  ? C
   C62        1.0     0.800700     0.551800     0.097700    Uiso  ? C
   C63        1.0     0.831200     0.533500     0.988800    Uiso  ? C
   C64        1.0     0.291000     0.114300     0.654800    Uiso  ? C
   C65        1.0     0.300700     0.051800     0.597700    Uiso  ? C
   C66        1.0     0.331200     0.033500     0.488800    Uiso  ? C
   C67        1.0     0.709000     0.885700     0.654800    Uiso  ? C
   C68        1.0     0.699300     0.948200     0.597700    Uiso  ? C
   C69        1.0     0.668800     0.966500     0.488800    Uiso  ? C
   C70        1.0     0.209000     0.385700     0.154800    Uiso  ? C
   C71        1.0     0.199300     0.448200     0.097700    Uiso  ? C
   C72        1.0     0.168800     0.466500     0.988800    Uiso  ? C
   C73        1.0     0.885700     0.709000     0.345200    Uiso  ? C
   C74        1.0     0.948200     0.699300     0.402300    Uiso  ? C
   C75        1.0     0.966500     0.668800     0.511200    Uiso  ? C
   C76        1.0     0.385700     0.209000     0.845200    Uiso  ? C
   C77        1.0     0.448200     0.199300     0.902300    Uiso  ? C
   C78        1.0     0.466500     0.168800     0.011200    Uiso  ? C
   C79        1.0     0.614300     0.791000     0.845200    Uiso  ? C
   C80        1.0     0.551800     0.800700     0.902300    Uiso  ? C
   C81        1.0     0.533500     0.831200     0.011200    Uiso  ? C
   C82        1.0     0.114300     0.291000     0.345200    Uiso  ? C
   C83        1.0     0.051800     0.300700     0.402300    Uiso  ? C
   C84        1.0     0.033500     0.331200     0.511200    Uiso  ? C
   C85        1.0     0.709000     0.614300     0.595200    Uiso  ? C
   C86        1.0     0.699300     0.551800     0.652300    Uiso  ? C
   C87        1.0     0.668800     0.533500     0.761200    Uiso  ? C
   C88        1.0     0.209000     0.114300     0.095200    Uiso  ? C
   C89        1.0     0.199300     0.051800     0.152300    Uiso  ? C
   C90        1.0     0.168800     0.033500     0.261200    Uiso  ? C
   C91        1.0     0.791000     0.885700     0.095200    Uiso  ? C
   C92        1.0     0.800700     0.948200     0.152300    Uiso  ? C
   C93        1.0     0.831200     0.966500     0.261200    Uiso  ? C
   C94        1.0     0.291000     0.385700     0.595200    Uiso  ? C
   C95        1.0     0.300700     0.448200     0.652300    Uiso  ? C
   C96        1.0     0.331200     0.466500     0.761200    Uiso  ? C
   O1         1.0     0.382900     0.757600     0.746300    Uiso  ? O
   O2         1.0     0.339900     0.818600     0.901000    Uiso  ? O
   O3         1.0     0.882900     0.257600     0.246300    Uiso  ? O
   O4         1.0     0.839900     0.318600     0.401000    Uiso  ? O
   O5         1.0     0.117100     0.742400     0.246300    Uiso  ? O
   O6         1.0     0.160100     0.681400     0.401000    Uiso  ? O
   O7         1.0     0.617100     0.242400     0.746300    Uiso  ? O
   O8         1.0     0.660100     0.181400     0.901000    Uiso  ? O
   O9         1.0     0.242400     0.882900     0.996300    Uiso  ? O
   O10        1.0     0.181400     0.839900     0.151000    Uiso  ? O
   O11        1.0     0.742400     0.382900     0.496300    Uiso  ? O
   O12        1.0     0.681400     0.339900     0.651000    Uiso  ? O
   O13        1.0     0.257600     0.617100     0.496300    Uiso  ? O
   O14        1.0     0.318600     0.660100     0.651000    Uiso  ? O
   O15        1.0     0.757600     0.117100     0.996300    Uiso  ? O
   O16        1.0     0.818600     0.160100     0.151000    Uiso  ? O
   O17        1.0     0.117100     0.757600     0.003700    Uiso  ? O
   O18        1.0     0.160100     0.818600     0.849000    Uiso  ? O
   O19        1.0     0.617100     0.257600     0.503700    Uiso  ? O
   O20        1.0     0.660100     0.318600     0.349000    Uiso  ? O
   O21        1.0     0.382900     0.742400     0.503700    Uiso  ? O
   O22        1.0     0.339900     0.681400     0.349000    Uiso  ? O
   O23        1.0     0.882900     0.242400     0.003700    Uiso  ? O
   O24        1.0     0.839900     0.181400     0.849000    Uiso  ? O
   O25        1.0     0.257600     0.882900     0.753700    Uiso  ? O
   O26        1.0     0.318600     0.839900     0.599000    Uiso  ? O
   O27        1.0     0.757600     0.382900     0.253700    Uiso  ? O
   O28        1.0     0.818600     0.339900     0.099000    Uiso  ? O
   O29        1.0     0.242400     0.617100     0.253700    Uiso  ? O
   O30        1.0     0.181400     0.660100     0.099000    Uiso  ? O
   O31        1.0     0.742400     0.117100     0.753700    Uiso  ? O
   O32        1.0     0.681400     0.160100     0.599000    Uiso  ? O
   O33        1.0     0.617100     0.742400     0.503700    Uiso  ? O
   O34        1.0     0.660100     0.681400     0.349000    Uiso  ? O
   O35        1.0     0.117100     0.242400     0.003700    Uiso  ? O
   O36        1.0     0.160100     0.181400     0.849000    Uiso  ? O
   O37        1.0     0.882900     0.757600     0.003700    Uiso  ? O
   O38        1.0     0.839900     0.818600     0.849000    Uiso  ? O
   O39        1.0     0.382900     0.257600     0.503700    Uiso  ? O
   O40        1.0     0.339900     0.318600     0.349000    Uiso  ? O
   O41        1.0     0.757600     0.617100     0.253700    Uiso  ? O
   O42        1.0     0.818600     0.660100     0.099000    Uiso  ? O
   O43        1.0     0.257600     0.117100     0.753700    Uiso  ? O
   O44        1.0     0.318600     0.160100     0.599000    Uiso  ? O
   O45        1.0     0.742400     0.882900     0.753700    Uiso  ? O
   O46        1.0     0.681400     0.839900     0.599000    Uiso  ? O
   O47        1.0     0.242400     0.382900     0.253700    Uiso  ? O
   O48        1.0     0.181400     0.339900     0.099000    Uiso  ? O
   O49        1.0     0.882900     0.742400     0.246300    Uiso  ? O
   O50        1.0     0.839900     0.681400     0.401000    Uiso  ? O
   O51        1.0     0.382900     0.242400     0.746300    Uiso  ? O
   O52        1.0     0.339900     0.181400     0.901000    Uiso  ? O
   O53        1.0     0.617100     0.757600     0.746300    Uiso  ? O
   O54        1.0     0.660100     0.818600     0.901000    Uiso  ? O
   O55        1.0     0.117100     0.257600     0.246300    Uiso  ? O
   O56        1.0     0.160100     0.318600     0.401000    Uiso  ? O
   O57        1.0     0.742400     0.617100     0.496300    Uiso  ? O
   O58        1.0     0.681400     0.660100     0.651000    Uiso  ? O
   O59        1.0     0.242400     0.117100     0.996300    Uiso  ? O
   O60        1.0     0.181400     0.160100     0.151000    Uiso  ? O
   O61        1.0     0.757600     0.882900     0.996300    Uiso  ? O
   O62        1.0     0.818600     0.839900     0.151000    Uiso  ? O
   O63        1.0     0.257600     0.382900     0.496300    Uiso  ? O
   O64        1.0     0.318600     0.339900     0.651000    Uiso  ? O
   O65        1.0     0.254100     0.754100     0.750000    Uiso  ? O
   O66        1.0     0.754100     0.254100     0.250000    Uiso  ? O
   O67        1.0     0.245900     0.745900     0.250000    Uiso  ? O
   O68        1.0     0.745900     0.245900     0.750000    Uiso  ? O
   O69        1.0     0.245900     0.754100     0.000000    Uiso  ? O
   O70        1.0     0.745900     0.254100     0.500000    Uiso  ? O
   O71        1.0     0.254100     0.745900     0.500000    Uiso  ? O
   O72        1.0     0.754100     0.245900     0.000000    Uiso  ? O
   O73        1.0     0.745900     0.745900     0.500000    Uiso  ? O
   O74        1.0     0.245900     0.245900     0.000000    Uiso  ? O
   O75        1.0     0.754100     0.754100     0.000000    Uiso  ? O
   O76        1.0     0.254100     0.254100     0.500000    Uiso  ? O
   O77        1.0     0.754100     0.745900     0.250000    Uiso  ? O
   O78        1.0     0.254100     0.245900     0.750000    Uiso  ? O
   O79        1.0     0.745900     0.754100     0.750000    Uiso  ? O
   O80        1.0     0.245900     0.254100     0.250000    Uiso  ? O
   O81        1.0     0.500000     0.781300     0.835900    Uiso  ? O
   O82        1.0     0.000000     0.281300     0.335900    Uiso  ? O
   O83        1.0     0.000000     0.718700     0.335900    Uiso  ? O
   O84        1.0     0.500000     0.218700     0.835900    Uiso  ? O
   O85        1.0     0.218700     0.000000     0.085900    Uiso  ? O
   O86        1.0     0.281300     0.500000     0.585900    Uiso  ? O
   O87        1.0     0.000000     0.781300     0.914100    Uiso  ? O
   O88        1.0     0.500000     0.281300     0.414100    Uiso  ? O
   O89        1.0     0.500000     0.718700     0.414100    Uiso  ? O
   O90        1.0     0.000000     0.218700     0.914100    Uiso  ? O
   O91        1.0     0.281300     0.000000     0.664100    Uiso  ? O
   O92        1.0     0.218700     0.500000     0.164100    Uiso  ? O
   O93        1.0     0.781300     0.500000     0.164100    Uiso  ? O
   O94        1.0     0.718700     0.000000     0.664100    Uiso  ? O
   O95        1.0     0.718700     0.500000     0.585900    Uiso  ? O
   O96        1.0     0.781300     0.000000     0.085900    Uiso  ? O
