
#======================================================================
# CRYSTAL DATA
#----------------------------------------------------------------------
data_VESTA_phase_1

_chemical_name_common                  'MIL120-str2'
_cell_length_a                         11.099820
_cell_length_b                         11.083214
_cell_length_c                         7.499830
_cell_angle_alpha                      107.643898
_cell_angle_beta                       107.554855
_cell_angle_gamma                      127.914360
_cell_volume                           527.775436
_space_group_name_H-M_alt              'P 1'
_space_group_IT_number                 1

loop_
_space_group_symop_operation_xyz
   'x, y, z'

loop_
   _atom_site_label
   _atom_site_occupancy
   _atom_site_fract_x
   _atom_site_fract_y
   _atom_site_fract_z
   _atom_site_adp_type
   _atom_site_U_iso_or_equiv
   _atom_site_type_symbol
   Al1        1.0     0.708287     0.293292     0.001536    Uiso  ? Al
   Al2        1.0     0.290590     0.708372     0.000791    Uiso  ? Al
   Al3        1.0     0.499421     0.000000     0.501227    Uiso  ? Al
   Al4        1.0     0.000000     0.500865     0.501207    Uiso  ? Al
   H1         1.0     0.458311     0.459400     0.793697    Uiso  ? H
   H2         1.0     0.540432     0.542058     0.208270    Uiso  ? H
   H3         1.0     0.015609     0.345160     0.675661    Uiso  ? H
   H4         1.0     0.983330     0.656498     0.326379    Uiso  ? H
   H5         1.0     0.862416     0.324671     0.802042    Uiso  ? H
   H6         1.0     0.136382     0.676820     0.200186    Uiso  ? H
   H7         1.0     0.653111     0.982240     0.324304    Uiso  ? H
   H8         1.0     0.674987     0.137415     0.199569    Uiso  ? H
   H9         1.0     0.345745     0.019388     0.677924    Uiso  ? H
   H10        1.0     0.323964     0.864283     0.802839    Uiso  ? H
   C1         1.0     0.581602     0.332903     0.652618    Uiso  ? C
   C2         1.0     0.417252     0.668653     0.349494    Uiso  ? C
   C3         1.0     0.669669     0.421410     0.351281    Uiso  ? C
   C4         1.0     0.329229     0.580228     0.650889    Uiso  ? C
   C5         1.0     0.549523     0.429511     0.584302    Uiso  ? C
   C6         1.0     0.449321     0.572041     0.417782    Uiso  ? C
   C7         1.0     0.572553     0.452671     0.419297    Uiso  ? C
   C8         1.0     0.426293     0.548890     0.582798    Uiso  ? C
   C9         1.0     0.478392     0.479618     0.667592    Uiso  ? C
   C10        1.0     0.520420     0.521902     0.334452    Uiso  ? C
   O1         1.0     0.976781     0.559656     0.284221    Uiso  ? O
   O2         1.0     0.022117     0.441982     0.717996    Uiso  ? O
   O3         1.0     0.441587     0.024854     0.719045    Uiso  ? O
   O4         1.0     0.557260     0.976755     0.283278    Uiso  ? O
   O5         1.0     0.761095     0.225699     0.803317    Uiso  ? O
   O6         1.0     0.237748     0.775866     0.198997    Uiso  ? O
   O7         1.0     0.774055     0.239008     0.198634    Uiso  ? O
   O8         1.0     0.224880     0.762680     0.803726    Uiso  ? O
   O9         1.0     0.676804     0.411609     0.877367    Uiso  ? O
   O10        1.0     0.322034     0.589940     0.124741    Uiso  ? O
   O11        1.0     0.591561     0.326793     0.126622    Uiso  ? O
   O12        1.0     0.407315     0.674793     0.875544    Uiso  ? O
   O13        1.0     0.500903     0.171817     0.476888    Uiso  ? O
   O14        1.0     0.497948     0.829723     0.525254    Uiso  ? O
   O15        1.0     0.829976     0.501478     0.526541    Uiso  ? O
   O16        1.0     0.168986     0.500282     0.475675    Uiso  ? O
