
#======================================================================
# CRYSTAL DATA
#----------------------------------------------------------------------
data_VESTA_phase_1

_chemical_name_common                  'MIL127_OMS-opt'
_cell_length_a                         21.593000
_cell_length_b                         21.596001
_cell_length_c                         21.573000
_cell_angle_alpha                      90.000000
_cell_angle_beta                       90.000000
_cell_angle_gamma                      90.000000
_cell_volume                           10059.974223
_space_group_name_H-M_alt              'P 1'
_space_group_IT_number                 1

loop_
_space_group_symop_operation_xyz
   'x, y, z'

loop_
   _atom_site_label
   _atom_site_occupancy
   _atom_site_fract_x
   _atom_site_fract_y
   _atom_site_fract_z
   _atom_site_adp_type
   _atom_site_U_iso_or_equiv
   _atom_site_type_symbol
   Fe1        1.0     0.813180     0.201009     0.007139    Uiso  ? Fe
   Fe2        1.0     0.695457     0.257826     0.068790    Uiso  ? Fe
   Fe3        1.0     0.305747     0.257687     0.427247    Uiso  ? Fe
   Fe4        1.0     0.187422     0.201056     0.488296    Uiso  ? Fe
   Fe5        1.0     0.243366     0.313947     0.545868    Uiso  ? Fe
   Fe6        1.0     0.242856     0.685590     0.949149    Uiso  ? Fe
   Fe7        1.0     0.187607     0.798898     0.006907    Uiso  ? Fe
   Fe8        1.0     0.305608     0.741943     0.068141    Uiso  ? Fe
   Fe9        1.0     0.694299     0.741897     0.427293    Uiso  ? Fe
   Fe10       1.0     0.757051     0.685497     0.545960    Uiso  ? Fe
   Fe11       1.0     0.812439     0.798944     0.488805    Uiso  ? Fe
   Fe12       1.0     0.757375     0.314317     0.949335    Uiso  ? Fe
   Fe13       1.0     0.201223     0.187303     0.989199    Uiso  ? Fe
   Fe14       1.0     0.258139     0.305288     0.928105    Uiso  ? Fe
   Fe15       1.0     0.258093     0.694666     0.566727    Uiso  ? Fe
   Fe16       1.0     0.314500     0.757224     0.447689    Uiso  ? Fe
   Fe17       1.0     0.201176     0.812697     0.505771    Uiso  ? Fe
   Fe18       1.0     0.685407     0.757177     0.047281    Uiso  ? Fe
   Fe19       1.0     0.798731     0.812465     0.989339    Uiso  ? Fe
   Fe20       1.0     0.741722     0.694527     0.928012    Uiso  ? Fe
   Fe21       1.0     0.741073     0.305705     0.568720    Uiso  ? Fe
   Fe22       1.0     0.799148     0.187627     0.507996    Uiso  ? Fe
   Fe23       1.0     0.686472     0.242684     0.448755    Uiso  ? Fe
   Fe24       1.0     0.314546     0.242776     0.047235    Uiso  ? Fe
   H1         1.0     0.698791     0.414892     0.166458    Uiso  ? H
   H2         1.0     0.919418     0.197675     0.163491    Uiso  ? H
   H3         1.0     0.594267     0.111919     0.058592    Uiso  ? H
   H4         1.0     0.745195     0.226431     0.254485    Uiso  ? H
   H5         1.0     0.598296     0.269078     0.108793    Uiso  ? H
   H6         1.0     0.080860     0.199250     0.332035    Uiso  ? H
   H7         1.0     0.085444     0.419152     0.545821    Uiso  ? H
   H8         1.0     0.301811     0.414799     0.328652    Uiso  ? H
   H9         1.0     0.387857     0.308807     0.655866    Uiso  ? H
   H10        1.0     0.406984     0.111641     0.439485    Uiso  ? H
   H11        1.0     0.191127     0.092147     0.634868    Uiso  ? H
   H12        1.0     0.256379     0.226570     0.243174    Uiso  ? H
   H13        1.0     0.272403     0.506066     0.502804    Uiso  ? H
   H14        1.0     0.402584     0.268151     0.385714    Uiso  ? H
   H15        1.0     0.085352     0.580756     0.950030    Uiso  ? H
   H16        1.0     0.190803     0.906788     0.860335    Uiso  ? H
   H17        1.0     0.387765     0.690915     0.839475    Uiso  ? H
   H18        1.0     0.272357     0.493888     0.992120    Uiso  ? H
   H19        1.0     0.301579     0.584923     0.166458    Uiso  ? H
   H20        1.0     0.080350     0.800287     0.163167    Uiso  ? H
   H21        1.0     0.407493     0.888452     0.055393    Uiso  ? H
   H22        1.0     0.255870     0.773754     0.252167    Uiso  ? H
   H23        1.0     0.402492     0.729904     0.108562    Uiso  ? H
   H24        1.0     0.919372     0.800148     0.332360    Uiso  ? H
   H25        1.0     0.698884     0.584692     0.328605    Uiso  ? H
   H26        1.0     0.914741     0.580617     0.546099    Uiso  ? H
   H27        1.0     0.611865     0.689480     0.655495    Uiso  ? H
   H28        1.0     0.808734     0.907205     0.634960    Uiso  ? H
   H29        1.0     0.593202     0.888544     0.438697    Uiso  ? H
   H30        1.0     0.743713     0.773569     0.243499    Uiso  ? H
   H31        1.0     0.726624     0.493841     0.503314    Uiso  ? H
   H32        1.0     0.597694     0.729163     0.386177    Uiso  ? H
   H33        1.0     0.914741     0.419383     0.949937    Uiso  ? H
   H34        1.0     0.808688     0.092656     0.861076    Uiso  ? H
   H35        1.0     0.612467     0.308344     0.839846    Uiso  ? H
   H36        1.0     0.726254     0.506020     0.991888    Uiso  ? H
   H37        1.0     0.415181     0.299037     0.829277    Uiso  ? H
   H38        1.0     0.198814     0.080617     0.832244    Uiso  ? H
   H39        1.0     0.111749     0.407020     0.940620    Uiso  ? H
   H40        1.0     0.226972     0.255603     0.742549    Uiso  ? H
   H41        1.0     0.269393     0.402389     0.888240    Uiso  ? H
   H42        1.0     0.199046     0.919105     0.663051    Uiso  ? H
   H43        1.0     0.414625     0.699944     0.665693    Uiso  ? H
   H44        1.0     0.419488     0.914660     0.448477    Uiso  ? H
   H45        1.0     0.311675     0.611919     0.339220    Uiso  ? H
   H46        1.0     0.092715     0.808900     0.360451    Uiso  ? H
   H47        1.0     0.111888     0.592888     0.553516    Uiso  ? H
   H48        1.0     0.225814     0.743564     0.752098    Uiso  ? H
   H49        1.0     0.506321     0.727635     0.491494    Uiso  ? H
   H50        1.0     0.269300     0.597564     0.606638    Uiso  ? H
   H51        1.0     0.580883     0.915077     0.047096    Uiso  ? H
   H52        1.0     0.906822     0.808946     0.135123    Uiso  ? H
   H53        1.0     0.688093     0.611965     0.155658    Uiso  ? H
   H54        1.0     0.493864     0.727125     0.003569    Uiso  ? H
   H55        1.0     0.585004     0.700500     0.828860    Uiso  ? H
   H56        1.0     0.800815     0.919105     0.832244    Uiso  ? H
   H57        1.0     0.888343     0.593073     0.940667    Uiso  ? H
   H58        1.0     0.774232     0.743656     0.743012    Uiso  ? H
   H59        1.0     0.731348     0.597703     0.887174    Uiso  ? H
   H60        1.0     0.799518     0.080570     0.663839    Uiso  ? H
   H61        1.0     0.581022     0.085479     0.448385    Uiso  ? H
   H62        1.0     0.585097     0.298574     0.666157    Uiso  ? H
   H63        1.0     0.688649     0.387572     0.339730    Uiso  ? H
   H64        1.0     0.888714     0.406835     0.560330    Uiso  ? H
   H65        1.0     0.908998     0.188183     0.360775    Uiso  ? H
   H66        1.0     0.773306     0.256020     0.753164    Uiso  ? H
   H67        1.0     0.493632     0.272782     0.491540    Uiso  ? H
   H68        1.0     0.725374     0.401510     0.611181    Uiso  ? H
   H69        1.0     0.419534     0.085479     0.046447    Uiso  ? H
   H70        1.0     0.093410     0.190637     0.134844    Uiso  ? H
   H71        1.0     0.311166     0.387803     0.155611    Uiso  ? H
   H72        1.0     0.506275     0.272828     0.004079    Uiso  ? H
   H73        1.0     0.004400     0.243749     0.975664    Uiso  ? H
   H74        1.0     0.995693     0.756344     0.975849    Uiso  ? H
   H75        1.0     0.243968     0.995647     0.020859    Uiso  ? H
   H76        1.0     0.756773     0.004075     0.021369    Uiso  ? H
   H77        1.0     0.995091     0.243564     0.522227    Uiso  ? H
   H78        1.0     0.004214     0.756390     0.520419    Uiso  ? H
   H79        1.0     0.756588     0.995647     0.474018    Uiso  ? H
   H80        1.0     0.243736     0.004121     0.474250    Uiso  ? H
   C1         1.0     0.713333     0.124421     0.039865    Uiso  ? C
   C2         1.0     0.700597     0.456798     0.139155    Uiso  ? C
   C3         1.0     0.892095     0.199667     0.205396    Uiso  ? C
   C4         1.0     0.616450     0.067559     0.052009    Uiso  ? C
   C5         1.0     0.679850     0.064271     0.041348    Uiso  ? C
   C6         1.0     0.720280     0.391369     0.047745    Uiso  ? C
   C7         1.0     0.800398     0.220365     0.140268    Uiso  ? C
   C8         1.0     0.711990     0.453880     0.075882    Uiso  ? C
   C9         1.0     0.829065     0.211382     0.202568    Uiso  ? C
   C10        1.0     0.715741     0.508289     0.040838    Uiso  ? C
   C11        1.0     0.794054     0.215734     0.257173    Uiso  ? C
   C12        1.0     0.693419     0.514262     0.167571    Uiso  ? C
   C13        1.0     0.920715     0.192675     0.262875    Uiso  ? C
   C14        1.0     0.375029     0.290841     0.535577    Uiso  ? C
   C15        1.0     0.287964     0.124514     0.456775    Uiso  ? C
   C16        1.0     0.210022     0.211984     0.621888    Uiso  ? C
   C17        1.0     0.108600     0.201102     0.290456    Uiso  ? C
   C18        1.0     0.043810     0.391415     0.545079    Uiso  ? C
   C19        1.0     0.299588     0.456705     0.355908    Uiso  ? C
   C20        1.0     0.431899     0.302880     0.632782    Uiso  ? C
   C21        1.0     0.384523     0.067327     0.445372    Uiso  ? C
   C22        1.0     0.196545     0.114975     0.679136    Uiso  ? C
   C23        1.0     0.434585     0.292600     0.569415    Uiso  ? C
   C24        1.0     0.321076     0.064225     0.455430    Uiso  ? C
   C25        1.0     0.207289     0.178413     0.682010    Uiso  ? C
   C26        1.0     0.199926     0.220643     0.356186    Uiso  ? C
   C27        1.0     0.109758     0.300287     0.526028    Uiso  ? C
   C28        1.0     0.279628     0.391230     0.447318    Uiso  ? C
   C29        1.0     0.171630     0.212354     0.293840    Uiso  ? C
   C30        1.0     0.047099     0.328070     0.534742    Uiso  ? C
   C31        1.0     0.287686     0.453834     0.419089    Uiso  ? C
   C32        1.0     0.207428     0.216383     0.239883    Uiso  ? C
   C33        1.0     0.283333     0.508289     0.453947    Uiso  ? C
   C34        1.0     0.080535     0.194527     0.232652    Uiso  ? C
   C35        1.0     0.306812     0.514216     0.327493    Uiso  ? C
   C36        1.0     0.208818     0.786905     0.872943    Uiso  ? C
   C37        1.0     0.374890     0.709066     0.959533    Uiso  ? C
   C38        1.0     0.043764     0.608446     0.951838    Uiso  ? C
   C39        1.0     0.196128     0.884099     0.816020    Uiso  ? C
   C40        1.0     0.431807     0.696657     0.862513    Uiso  ? C
   C41        1.0     0.206409     0.820615     0.812914    Uiso  ? C
   C42        1.0     0.434585     0.707075     0.925833    Uiso  ? C
   C43        1.0     0.109804     0.699667     0.969638    Uiso  ? C
   C44        1.0     0.047191     0.671791     0.962175    Uiso  ? C
   C45        1.0     0.288242     0.875347     0.038381    Uiso  ? C
   C46        1.0     0.299356     0.543017     0.139155    Uiso  ? C
   C47        1.0     0.107998     0.798435     0.204839    Uiso  ? C
   C48        1.0     0.384893     0.932719     0.049599    Uiso  ? C
   C49        1.0     0.321400     0.935682     0.039679    Uiso  ? C
   C50        1.0     0.279489     0.608539     0.047745    Uiso  ? C
   C51        1.0     0.199880     0.779357     0.139434    Uiso  ? C
   C52        1.0     0.287501     0.545981     0.075975    Uiso  ? C
   C53        1.0     0.171120     0.787646     0.201502    Uiso  ? C
   C54        1.0     0.283194     0.491619     0.040977    Uiso  ? C
   C55        1.0     0.206873     0.783664     0.255458    Uiso  ? C
   C56        1.0     0.306442     0.485507     0.167524    Uiso  ? C
   C57        1.0     0.079841     0.804732     0.262597    Uiso  ? C
   C58        1.0     0.624971     0.709020     0.535577    Uiso  ? C
   C59        1.0     0.790951     0.787090     0.622213    Uiso  ? C
   C60        1.0     0.712036     0.875301     0.456497    Uiso  ? C
   C61        1.0     0.891632     0.798296     0.290734    Uiso  ? C
   C62        1.0     0.700875     0.542832     0.356001    Uiso  ? C
   C63        1.0     0.956328     0.608353     0.544152    Uiso  ? C
   C64        1.0     0.567869     0.695777     0.632411    Uiso  ? C
   C65        1.0     0.803501     0.884423     0.679229    Uiso  ? C
   C66        1.0     0.615755     0.932765     0.444723    Uiso  ? C
   C67        1.0     0.565276     0.706890     0.569230    Uiso  ? C
   C68        1.0     0.793359     0.820846     0.682242    Uiso  ? C
   C69        1.0     0.679155     0.935729     0.454921    Uiso  ? C
   C70        1.0     0.800167     0.779311     0.356510    Uiso  ? C
   C71        1.0     0.720372     0.608446     0.447318    Uiso  ? C
   C72        1.0     0.890289     0.699667     0.526677    Uiso  ? C
   C73        1.0     0.828509     0.787461     0.294164    Uiso  ? C
   C74        1.0     0.712314     0.545842     0.419228    Uiso  ? C
   C75        1.0     0.952855     0.671698     0.534001    Uiso  ? C
   C76        1.0     0.792711     0.783478     0.240161    Uiso  ? C
   C77        1.0     0.716112     0.491526     0.454364    Uiso  ? C
   C78        1.0     0.919742     0.804686     0.232930    Uiso  ? C
   C79        1.0     0.693790     0.485275     0.327632    Uiso  ? C
   C80        1.0     0.790997     0.212863     0.873407    Uiso  ? C
   C81        1.0     0.625388     0.290609     0.960043    Uiso  ? C
   C82        1.0     0.956328     0.391647     0.951745    Uiso  ? C
   C83        1.0     0.803084     0.115253     0.816762    Uiso  ? C
   C84        1.0     0.568425     0.302649     0.862884    Uiso  ? C
   C85        1.0     0.792850     0.178829     0.813702    Uiso  ? C
   C86        1.0     0.565646     0.292462     0.926297    Uiso  ? C
   C87        1.0     0.890335     0.300472     0.969592    Uiso  ? C
   C88        1.0     0.952901     0.328348     0.962082    Uiso  ? C
   C89        1.0     0.124809     0.287970     0.958049    Uiso  ? C
   C90        1.0     0.457093     0.297092     0.856580    Uiso  ? C
   C91        1.0     0.201037     0.108168     0.790525    Uiso  ? C
   C92        1.0     0.067476     0.384516     0.946554    Uiso  ? C
   C93        1.0     0.064465     0.321078     0.956659    Uiso  ? C
   C94        1.0     0.391608     0.279218     0.948547    Uiso  ? C
   C95        1.0     0.220534     0.199806     0.856302    Uiso  ? C
   C96        1.0     0.454129     0.286488     0.919993    Uiso  ? C
   C97        1.0     0.212152     0.171235     0.793816    Uiso  ? C
   C98        1.0     0.508591     0.282691     0.954990    Uiso  ? C
   C99        1.0     0.216737     0.206659     0.739443    Uiso  ? C
   C100       1.0     0.514657     0.303390     0.827979    Uiso  ? C
   C101       1.0     0.194878     0.079783     0.732814    Uiso  ? C
   C102       1.0     0.291205     0.625116     0.458582    Uiso  ? C
   C103       1.0     0.212939     0.791072     0.372225    Uiso  ? C
   C104       1.0     0.124763     0.712030     0.536968    Uiso  ? C
   C105       1.0     0.200898     0.891369     0.704677    Uiso  ? C
   C106       1.0     0.456629     0.701982     0.638576    Uiso  ? C
   C107       1.0     0.391747     0.956242     0.450331    Uiso  ? C
   C108       1.0     0.305469     0.567929     0.362258    Uiso  ? C
   C109       1.0     0.115269     0.803482     0.316090    Uiso  ? C
   C110       1.0     0.067568     0.615438     0.548232    Uiso  ? C
   C111       1.0     0.293845     0.565244     0.425346    Uiso  ? C
   C112       1.0     0.178762     0.793202     0.312752    Uiso  ? C
   C113       1.0     0.064419     0.678922     0.538544    Uiso  ? C
   C114       1.0     0.220349     0.800009     0.638669    Uiso  ? C
   C115       1.0     0.391516     0.720828     0.546470    Uiso  ? C
   C116       1.0     0.300468     0.890211     0.468039    Uiso  ? C
   C117       1.0     0.211735     0.828255     0.701201    Uiso  ? C
   C118       1.0     0.453897     0.713280     0.575256    Uiso  ? C
   C119       1.0     0.328393     0.952769     0.460622    Uiso  ? C
   C120       1.0     0.215811     0.792508     0.755389    Uiso  ? C
   C121       1.0     0.508406     0.717262     0.540444    Uiso  ? C
   C122       1.0     0.194739     0.919522     0.762481    Uiso  ? C
   C123       1.0     0.514055     0.694943     0.667223    Uiso  ? C
   C124       1.0     0.786829     0.791026     0.123071    Uiso  ? C
   C125       1.0     0.707498     0.625023     0.035925    Uiso  ? C
   C126       1.0     0.608762     0.956566     0.045613    Uiso  ? C
   C127       1.0     0.884268     0.803482     0.179484    Uiso  ? C
   C128       1.0     0.694253     0.567976     0.132666    Uiso  ? C
   C129       1.0     0.820775     0.793156     0.182775    Uiso  ? C
   C130       1.0     0.705229     0.565244     0.069439    Uiso  ? C
   C131       1.0     0.699671     0.890257     0.027071    Uiso  ? C
   C132       1.0     0.672023     0.952908     0.035044    Uiso  ? C
   C133       1.0     0.875284     0.712030     0.958281    Uiso  ? C
   C134       1.0     0.543093     0.702399     0.856163    Uiso  ? C
   C135       1.0     0.798916     0.891461     0.790572    Uiso  ? C
   C136       1.0     0.932617     0.615577     0.946646    Uiso  ? C
   C137       1.0     0.935674     0.679015     0.956891    Uiso  ? C
   C138       1.0     0.608484     0.720735     0.948222    Uiso  ? C
   C139       1.0     0.779697     0.800009     0.856441    Uiso  ? C
   C140       1.0     0.546010     0.713280     0.919575    Uiso  ? C
   C141       1.0     0.788218     0.828348     0.793955    Uiso  ? C
   C142       1.0     0.491594     0.717077     0.954526    Uiso  ? C
   C143       1.0     0.784097     0.792693     0.739721    Uiso  ? C
   C144       1.0     0.485528     0.695777     0.827562    Uiso  ? C
   C145       1.0     0.804890     0.919754     0.732861    Uiso  ? C
   C146       1.0     0.707776     0.374792     0.459602    Uiso  ? C
   C147       1.0     0.874959     0.288109     0.541510    Uiso  ? C
   C148       1.0     0.789700     0.208650     0.374635    Uiso  ? C
   C149       1.0     0.797759     0.108214     0.705512    Uiso  ? C
   C150       1.0     0.608716     0.043897     0.450100    Uiso  ? C
   C151       1.0     0.543139     0.296768     0.638947    Uiso  ? C
   C152       1.0     0.694762     0.431654     0.362629    Uiso  ? C
   C153       1.0     0.932802     0.384330     0.553238    Uiso  ? C
   C154       1.0     0.885935     0.194156     0.316739    Uiso  ? C
   C155       1.0     0.705692     0.434479     0.425903    Uiso  ? C
   C156       1.0     0.935535     0.320939     0.542762    Uiso  ? C
   C157       1.0     0.822628     0.205640     0.314328    Uiso  ? C
   C158       1.0     0.778910     0.199759     0.639874    Uiso  ? C
   C159       1.0     0.699949     0.109835     0.468131    Uiso  ? C
   C160       1.0     0.608345     0.279033     0.546748    Uiso  ? C
   C161       1.0     0.786968     0.171328     0.702267    Uiso  ? C
   C162       1.0     0.672070     0.047231     0.460437    Uiso  ? C
   C163       1.0     0.545918     0.286164     0.575488    Uiso  ? C
   C164       1.0     0.783170     0.206983     0.756362    Uiso  ? C
   C165       1.0     0.491502     0.282599     0.540583    Uiso  ? C
   C166       1.0     0.804196     0.079876     0.763176    Uiso  ? C
   C167       1.0     0.485667     0.303390     0.667640    Uiso  ? C
   C168       1.0     0.213217     0.208881     0.122885    Uiso  ? C
   C169       1.0     0.291159     0.374838     0.036156    Uiso  ? C
   C170       1.0     0.391886     0.043851     0.044639    Uiso  ? C
   C171       1.0     0.115964     0.196055     0.179205    Uiso  ? C
   C172       1.0     0.305099     0.431793     0.132666    Uiso  ? C
   C173       1.0     0.179364     0.206612     0.182543    Uiso  ? C
   C174       1.0     0.293660     0.434618     0.069531    Uiso  ? C
   C175       1.0     0.300514     0.109743     0.026885    Uiso  ? C
   C176       1.0     0.328532     0.047185     0.034348    Uiso  ? C
   C177       1.0     0.007178     0.292786     0.966069    Uiso  ? C
   C178       1.0     0.014079     0.419846     0.945626    Uiso  ? C
   C179       1.0     0.992914     0.707307     0.966254    Uiso  ? C
   C180       1.0     0.986014     0.580246     0.945719    Uiso  ? C
   C181       1.0     0.293058     0.992962     0.030408    Uiso  ? C
   C182       1.0     0.420229     0.986201     0.050665    Uiso  ? C
   C183       1.0     0.707776     0.006946     0.031289    Uiso  ? C
   C184       1.0     0.580790     0.014308     0.052380    Uiso  ? C
   C185       1.0     0.992637     0.292600     0.532008    Uiso  ? C
   C186       1.0     0.986246     0.419615     0.552635    Uiso  ? C
   C187       1.0     0.007086     0.707261     0.529783    Uiso  ? C
   C188       1.0     0.014125     0.580107     0.549622    Uiso  ? C
   C189       1.0     0.707544     0.992962     0.464377    Uiso  ? C
   C190       1.0     0.580420     0.986201     0.443888    Uiso  ? C
   C191       1.0     0.292826     0.006946     0.464701    Uiso  ? C
   C192       1.0     0.419905     0.013984     0.444352    Uiso  ? C
   N1         1.0     0.689436     0.524078     0.231771    Uiso  ? N
   N2         1.0     0.984949     0.188461     0.272053    Uiso  ? N
   N3         1.0     0.016348     0.190683     0.223057    Uiso  ? N
   N4         1.0     0.311119     0.524125     0.263338    Uiso  ? N
   N5         1.0     0.310564     0.475505     0.231632    Uiso  ? N
   N6         1.0     0.015607     0.808437     0.272192    Uiso  ? N
   N7         1.0     0.983976     0.808437     0.223288    Uiso  ? N
   N8         1.0     0.689761     0.475366     0.263478    Uiso  ? N
   N9         1.0     0.524568     0.306955     0.763732    Uiso  ? N
   N10        1.0     0.190988     0.015512     0.723312    Uiso  ? N
   N11        1.0     0.191173     0.983840     0.772123    Uiso  ? N
   N12        1.0     0.523966     0.690637     0.731424    Uiso  ? N
   N13        1.0     0.475478     0.692304     0.763362    Uiso  ? N
   N14        1.0     0.808364     0.984117     0.723543    Uiso  ? N
   N15        1.0     0.808132     0.015558     0.772493    Uiso  ? N
   N16        1.0     0.475895     0.307048     0.731933    Uiso  ? N
   N17        1.0     0.024267     0.484025     0.942150    Uiso  ? N
   N18        1.0     0.975872     0.516068     0.942150    Uiso  ? N
   N19        1.0     0.484463     0.976153     0.054049    Uiso  ? N
   N20        1.0     0.516556     0.024495     0.056274    Uiso  ? N
   N21        1.0     0.976103     0.483840     0.556344    Uiso  ? N
   N22        1.0     0.024360     0.515929     0.552913    Uiso  ? N
   N23        1.0     0.516232     0.975968     0.440412    Uiso  ? N
   N24        1.0     0.484092     0.024264     0.440782    Uiso  ? N
   O1         1.0     0.885982     0.249815     0.999768    Uiso  ? O
   O2         1.0     0.750521     0.387387     0.997033    Uiso  ? O
   O3         1.0     0.751401     0.252223     0.137950    Uiso  ? O
   O4         1.0     0.764368     0.127709     0.010337    Uiso  ? O
   O5         1.0     0.626592     0.262688     0.011635    Uiso  ? O
   O6         1.0     0.828324     0.195221     0.094516    Uiso  ? O
   O7         1.0     0.696707     0.346823     0.077504    Uiso  ? O
   O8         1.0     0.686611     0.168642     0.067260    Uiso  ? O
   O9         1.0     0.636873     0.256205     0.127891    Uiso  ? O
   O10        1.0     0.756680     0.258520     0.007648    Uiso  ? O
   O11        1.0     0.249016     0.252176     0.359245    Uiso  ? O
   O12        1.0     0.114111     0.249907     0.495434    Uiso  ? O
   O13        1.0     0.249433     0.387248     0.498030    Uiso  ? O
   O14        1.0     0.373917     0.262734     0.484170    Uiso  ? O
   O15        1.0     0.235910     0.127755     0.484541    Uiso  ? O
   O16        1.0     0.238550     0.263428     0.619154    Uiso  ? O
   O17        1.0     0.303432     0.346777     0.417559    Uiso  ? O
   O18        1.0     0.171630     0.195082     0.401335    Uiso  ? O
   O19        1.0     0.155282     0.329644     0.549205    Uiso  ? O
   O20        1.0     0.316167     0.168781     0.430816    Uiso  ? O
   O21        1.0     0.184597     0.185173     0.575951    Uiso  ? O
   O22        1.0     0.329459     0.317188     0.562184    Uiso  ? O
   O23        1.0     0.363451     0.256159     0.367218    Uiso  ? O
   O24        1.0     0.244802     0.258011     0.487878    Uiso  ? O
   O25        1.0     0.235678     0.734488     0.875493    Uiso  ? O
   O26        1.0     0.155050     0.670124     0.946090    Uiso  ? O
   O27        1.0     0.329320     0.682997     0.932740    Uiso  ? O
   O28        1.0     0.184875     0.814734     0.919112    Uiso  ? O
   O29        1.0     0.249433     0.612567     0.996894    Uiso  ? O
   O30        1.0     0.114250     0.750278     0.999722    Uiso  ? O
   O31        1.0     0.249109     0.747963     0.137255    Uiso  ? O
   O32        1.0     0.236188     0.872245     0.010569    Uiso  ? O
   O33        1.0     0.373779     0.737174     0.010986    Uiso  ? O
   O34        1.0     0.171815     0.804732     0.093960    Uiso  ? O
   O35        1.0     0.303246     0.652991     0.077412    Uiso  ? O
   O36        1.0     0.316260     0.830987     0.064293    Uiso  ? O
   O37        1.0     0.363451     0.741063     0.127845    Uiso  ? O
   O38        1.0     0.244431     0.741572     0.007185    Uiso  ? O
   O39        1.0     0.751077     0.747777     0.359431    Uiso  ? O
   O40        1.0     0.750521     0.612521     0.498076    Uiso  ? O
   O41        1.0     0.885889     0.750833     0.497705    Uiso  ? O
   O42        1.0     0.626083     0.737174     0.484170    Uiso  ? O
   O43        1.0     0.764275     0.734580     0.619571    Uiso  ? O
   O44        1.0     0.763998     0.872199     0.484448    Uiso  ? O
   O45        1.0     0.696661     0.652945     0.417605    Uiso  ? O
   O46        1.0     0.844764     0.669754     0.549066    Uiso  ? O
   O47        1.0     0.828463     0.804779     0.401752    Uiso  ? O
   O48        1.0     0.683833     0.830941     0.430724    Uiso  ? O
   O49        1.0     0.670634     0.682904     0.562277    Uiso  ? O
   O50        1.0     0.814986     0.814919     0.576044    Uiso  ? O
   O51        1.0     0.636642     0.741109     0.367218    Uiso  ? O
   O52        1.0     0.755430     0.741665     0.488064    Uiso  ? O
   O53        1.0     0.764322     0.265373     0.875724    Uiso  ? O
   O54        1.0     0.844996     0.329922     0.946044    Uiso  ? O
   O55        1.0     0.815357     0.185266     0.919436    Uiso  ? O
   O56        1.0     0.670866     0.316725     0.933018    Uiso  ? O
   O57        1.0     0.249849     0.114142     0.996755    Uiso  ? O
   O58        1.0     0.387579     0.249398     0.999536    Uiso  ? O
   O59        1.0     0.252072     0.248981     0.858805    Uiso  ? O
   O60        1.0     0.127866     0.235923     0.985908    Uiso  ? O
   O61        1.0     0.263095     0.373680     0.984610    Uiso  ? O
   O62        1.0     0.195295     0.171745     0.901961    Uiso  ? O
   O63        1.0     0.347150     0.303112     0.919019    Uiso  ? O
   O64        1.0     0.169175     0.316077     0.932230    Uiso  ? O
   O65        1.0     0.258927     0.363354     0.868632    Uiso  ? O
   O66        1.0     0.258649     0.243749     0.989107    Uiso  ? O
   O67        1.0     0.252072     0.750926     0.636073    Uiso  ? O
   O68        1.0     0.387533     0.750602     0.495480    Uiso  ? O
   O69        1.0     0.249849     0.885858     0.498215    Uiso  ? O
   O70        1.0     0.263048     0.626320     0.510036    Uiso  ? O
   O71        1.0     0.265456     0.764354     0.374218    Uiso  ? O
   O72        1.0     0.127819     0.764030     0.509109    Uiso  ? O
   O73        1.0     0.347011     0.696842     0.575859    Uiso  ? O
   O74        1.0     0.329922     0.844971     0.444398    Uiso  ? O
   O75        1.0     0.195295     0.828255     0.593010    Uiso  ? O
   O76        1.0     0.169175     0.683877     0.562694    Uiso  ? O
   O77        1.0     0.316862     0.670726     0.431419    Uiso  ? O
   O78        1.0     0.185338     0.815336     0.418254    Uiso  ? O
   O79        1.0     0.258927     0.636646     0.626246    Uiso  ? O
   O80        1.0     0.258602     0.756251     0.505771    Uiso  ? O
   O81        1.0     0.734358     0.764308     0.120846    Uiso  ? O
   O82        1.0     0.670078     0.844971     0.050526    Uiso  ? O
   O83        1.0     0.683045     0.670911     0.063737    Uiso  ? O
   O84        1.0     0.814616     0.815197     0.077041    Uiso  ? O
   O85        1.0     0.612467     0.750556     0.999212    Uiso  ? O
   O86        1.0     0.750197     0.885766     0.996802    Uiso  ? O
   O87        1.0     0.748066     0.750926     0.858898    Uiso  ? O
   O88        1.0     0.872181     0.764123     0.986001    Uiso  ? O
   O89        1.0     0.734219     0.625996     0.983683    Uiso  ? O
   O90        1.0     0.804705     0.828209     0.902100    Uiso  ? O
   O91        1.0     0.652989     0.696796     0.918741    Uiso  ? O
   O92        1.0     0.830917     0.683830     0.932555    Uiso  ? O
   O93        1.0     0.743852     0.636646     0.868493    Uiso  ? O
   O94        1.0     0.741351     0.755649     0.989107    Uiso  ? O
   O95        1.0     0.747603     0.248981     0.636815    Uiso  ? O
   O96        1.0     0.750475     0.114373     0.498354    Uiso  ? O
   O97        1.0     0.612560     0.249398     0.495712    Uiso  ? O
   O98        1.0     0.734173     0.373958     0.511936    Uiso  ? O
   O99        1.0     0.872227     0.235553     0.514903    Uiso  ? O
   O100       1.0     0.737415     0.235645     0.376999    Uiso  ? O
   O101       1.0     0.652573     0.303204     0.576461    Uiso  ? O
   O102       1.0     0.804381     0.171421     0.594679    Uiso  ? O
   O103       1.0     0.670356     0.155121     0.444630    Uiso  ? O
   O104       1.0     0.829991     0.316633     0.565800    Uiso  ? O
   O105       1.0     0.817672     0.185081     0.420897    Uiso  ? O
   O106       1.0     0.683370     0.328857     0.431651    Uiso  ? O
   O107       1.0     0.740749     0.363308     0.629120    Uiso  ? O
   O108       1.0     0.741583     0.244675     0.508135    Uiso  ? O
   O109       1.0     0.265642     0.235692     0.120753    Uiso  ? O
   O110       1.0     0.329922     0.155029     0.050526    Uiso  ? O
   O111       1.0     0.185430     0.184756     0.076855    Uiso  ? O
   O112       1.0     0.316816     0.329274     0.063459    Uiso  ? O
