
#======================================================================
# CRYSTAL DATA
#----------------------------------------------------------------------
data_VESTA_phase_1

_chemical_name_common                  'MIL-140A'
_cell_length_a                         24.531300
_cell_length_b                         11.241100
_cell_length_c                         7.869300
_cell_angle_alpha                      90.000000
_cell_angle_beta                       97.709999
_cell_angle_gamma                      90.000000
_cell_volume                           2150.411200
_space_group_name_H-M_alt              'P 1'
_space_group_IT_number                 1

loop_
_space_group_symop_operation_xyz
   'x, y, z'

loop_
   _atom_site_label
   _atom_site_occupancy
   _atom_site_fract_x
   _atom_site_fract_y
   _atom_site_fract_z
   _atom_site_adp_type
   _atom_site_U_iso_or_equiv
   _atom_site_type_symbol
   Zr1        1.0     0.056100     0.494900     0.144400    Uiso  ? Zr
   Zr2        1.0     0.944600     0.495700     0.355900    Uiso  ? Zr
   Zr3        1.0     0.942800     0.504500     0.856200    Uiso  ? Zr
   Zr4        1.0     0.057400     0.505000     0.644600    Uiso  ? Zr
   Zr5        1.0     0.555500     0.995200     0.144200    Uiso  ? Zr
   Zr6        1.0     0.444800     0.995800     0.356400    Uiso  ? Zr
   Zr7        1.0     0.443000     0.004500     0.856500    Uiso  ? Zr
   Zr8        1.0     0.557200     0.004700     0.644300    Uiso  ? Zr
   H1         1.0     0.192100     0.240500     0.217200    Uiso  ? H
   H2         1.0     0.577400     0.392900     0.169200    Uiso  ? H
   H3         1.0     0.575000     0.616000     0.165300    Uiso  ? H
   H4         1.0     0.280600     0.125400     0.267800    Uiso  ? H
   H5         1.0     0.807100     0.240700     0.283400    Uiso  ? H
   H6         1.0     0.422800     0.392000     0.329400    Uiso  ? H
   H7         1.0     0.424500     0.615200     0.333333    Uiso  ? H
   H8         1.0     0.718700     0.125500     0.232700    Uiso  ? H
   H9         1.0     0.805100     0.759100     0.783200    Uiso  ? H
   H10        1.0     0.421000     0.607100     0.833700    Uiso  ? H
   H11        1.0     0.423300     0.383900     0.838200    Uiso  ? H
   H12        1.0     0.716600     0.874200     0.732600    Uiso  ? H
   H13        1.0     0.194100     0.759600     0.718300    Uiso  ? H
   H14        1.0     0.577500     0.608200     0.669600    Uiso  ? H
   H15        1.0     0.575900     0.385000     0.665500    Uiso  ? H
   H16        1.0     0.282200     0.876000     0.769100    Uiso  ? H
   H17        1.0     0.692100     0.743200     0.217100    Uiso  ? H
   H18        1.0     0.077600     0.893500     0.169300    Uiso  ? H
   H19        1.0     0.075000     0.116000     0.165100    Uiso  ? H
   H20        1.0     0.780600     0.628200     0.267700    Uiso  ? H
   H21        1.0     0.308200     0.740900     0.282200    Uiso  ? H
   H22        1.0     0.922700     0.892700     0.329400    Uiso  ? H
   H23        1.0     0.924600     0.115400     0.333800    Uiso  ? H
   H24        1.0     0.220300     0.623900     0.230900    Uiso  ? H
   H25        1.0     0.304600     0.254600     0.784200    Uiso  ? H
   H26        1.0     0.921200     0.106300     0.832700    Uiso  ? H
   H27        1.0     0.923600     0.883700     0.837600    Uiso  ? H
   H28        1.0     0.216100     0.369500     0.733800    Uiso  ? H
   H29        1.0     0.694100     0.256600     0.717300    Uiso  ? H
   H30        1.0     0.077800     0.107900     0.669000    Uiso  ? H
   H31        1.0     0.076100     0.885200     0.664400    Uiso  ? H
   H32        1.0     0.782600     0.371700     0.768000    Uiso  ? H
   C1         1.0     0.299800     0.183900     0.529500    Uiso  ? C
   C2         1.0     0.217900     0.242800     0.341100    Uiso  ? C
   C3         1.0     0.148800     0.381800     0.443400    Uiso  ? C
   C4         1.0     0.543400     0.440600     0.095900    Uiso  ? C
   C5         1.0     0.542200     0.564200     0.093300    Uiso  ? C
   C6         1.0     0.267000     0.179400     0.369000    Uiso  ? C
   C7         1.0     0.000600     0.874900     0.004300    Uiso  ? C
   C8         1.0     0.001700     0.741700     0.006300    Uiso  ? C
   C9         1.0     0.699300     0.184800     0.971500    Uiso  ? C
   C10        1.0     0.781200     0.243400     0.159700    Uiso  ? C
   C11        1.0     0.850300     0.382700     0.057700    Uiso  ? C
   C12        1.0     0.456400     0.440200     0.403800    Uiso  ? C
   C13        1.0     0.457300     0.563800     0.406300    Uiso  ? C
   C14        1.0     0.732100     0.180000     0.131800    Uiso  ? C
   C15        1.0     0.999400     0.875500     0.496200    Uiso  ? C
   C16        1.0     0.998800     0.742300     0.494500    Uiso  ? C
   C17        1.0     0.697200     0.814900     0.471300    Uiso  ? C
   C18        1.0     0.779200     0.756300     0.659500    Uiso  ? C
   C19        1.0     0.848300     0.617300     0.557200    Uiso  ? C
   C20        1.0     0.454900     0.559300     0.907200    Uiso  ? C
   C21        1.0     0.456200     0.435700     0.910000    Uiso  ? C
   C22        1.0     0.730100     0.819800     0.631600    Uiso  ? C
   C23        1.0     0.998000     0.124800     0.998500    Uiso  ? C
   C24        1.0     0.996800     0.258100     0.997500    Uiso  ? C
   C25        1.0     0.302300     0.814700     0.029200    Uiso  ? C
   C26        1.0     0.220300     0.756100     0.841400    Uiso  ? C
   C27        1.0     0.152100     0.614400     0.943200    Uiso  ? C
   C28        1.0     0.544000     0.560000     0.595100    Uiso  ? C
   C29        1.0     0.543100     0.436400     0.592600    Uiso  ? C
   C30        1.0     0.269100     0.820300     0.869400    Uiso  ? C
   C31        1.0     0.001300     0.125100     0.501900    Uiso  ? C
   C32        1.0     0.002200     0.258300     0.503200    Uiso  ? C
   C33        1.0     0.800000     0.687500     0.528900    Uiso  ? C
   C34        1.0     0.718000     0.746100     0.340700    Uiso  ? C
   C35        1.0     0.648900     0.884900     0.442900    Uiso  ? C
   C36        1.0     0.043500     0.940600     0.095500    Uiso  ? C
   C37        1.0     0.042200     0.064400     0.092900    Uiso  ? C
   C38        1.0     0.767100     0.682700     0.368600    Uiso  ? C
   C39        1.0     0.500300     0.375800     0.004500    Uiso  ? C
   C40        1.0     0.501500     0.243200     0.006100    Uiso  ? C
   C41        1.0     0.200100     0.685400     0.971100    Uiso  ? C
   C42        1.0     0.282100     0.744200     0.159000    Uiso  ? C
   C43        1.0     0.350400     0.885400     0.057800    Uiso  ? C
   C44        1.0     0.956500     0.940400     0.403900    Uiso  ? C
   C45        1.0     0.957500     0.064300     0.406600    Uiso  ? C
   C46        1.0     0.233300     0.679800     0.130700    Uiso  ? C
   C47        1.0     0.499400     0.376000     0.496600    Uiso  ? C
   C48        1.0     0.498700     0.243500     0.495000    Uiso  ? C
   C49        1.0     0.196900     0.311200     0.472000    Uiso  ? C
   C50        1.0     0.278800     0.252100     0.660400    Uiso  ? C
   C51        1.0     0.348200     0.114200     0.557400    Uiso  ? C
   C52        1.0     0.955200     0.059100     0.906700    Uiso  ? C
   C53        1.0     0.956500     0.935300     0.909700    Uiso  ? C
   C54        1.0     0.229700     0.315500     0.632600    Uiso  ? C
   C55        1.0     0.497900     0.624100     0.999000    Uiso  ? C
   C56        1.0     0.496800     0.756700     0.998200    Uiso  ? C
   C57        1.0     0.802000     0.312400     0.029200    Uiso  ? C
   C58        1.0     0.720100     0.253700     0.840900    Uiso  ? C
   C59        1.0     0.651000     0.114800     0.943400    Uiso  ? C
   C60        1.0     0.044100     0.060100     0.594400    Uiso  ? C
   C61        1.0     0.043200     0.936300     0.591700    Uiso  ? C
   C62        1.0     0.769200     0.317200     0.868900    Uiso  ? C
   C63        1.0     0.501100     0.624200     0.501900    Uiso  ? C
   C64        1.0     0.502100     0.756800     0.502800    Uiso  ? C
   O1         1.0     0.464900     0.808300     0.397500    Uiso  ? O
   O2         1.0     0.034300     0.504800     0.383900    Uiso  ? O
   O3         1.0     0.124900     0.391700     0.291200    Uiso  ? O
   O4         1.0     0.040100     0.689400     0.103900    Uiso  ? O
   O5         1.0     0.133500     0.562800     0.073300    Uiso  ? O
   O6         1.0     0.533900     0.808100     0.103400    Uiso  ? O
   O7         1.0     0.966800     0.504600     0.116700    Uiso  ? O
   O8         1.0     0.874100     0.392500     0.210000    Uiso  ? O
   O9         1.0     0.961300     0.689400     0.395100    Uiso  ? O
   O10        1.0     0.868400     0.569700     0.426600    Uiso  ? O
   O11        1.0     0.532400     0.191700     0.595300    Uiso  ? O
   O12        1.0     0.964600     0.495500     0.615700    Uiso  ? O
   O13        1.0     0.872200     0.607600     0.709500    Uiso  ? O
   O14        1.0     0.959700     0.310500     0.895700    Uiso  ? O
   O15        1.0     0.866400     0.430400     0.925600    Uiso  ? O
   O16        1.0     0.467000     0.191700     0.907300    Uiso  ? O
   O17        1.0     0.036300     0.495100     0.885400    Uiso  ? O
   O18        1.0     0.126900     0.607900     0.792000    Uiso  ? O
   O19        1.0     0.039200     0.310600     0.605200    Uiso  ? O
   O20        1.0     0.132700     0.429900     0.575300    Uiso  ? O
   O21        1.0     0.965000     0.310200     0.398300    Uiso  ? O
   O22        1.0     0.534200     0.007500     0.384300    Uiso  ? O
   O23        1.0     0.625000     0.894700     0.290800    Uiso  ? O
   O24        1.0     0.540000     0.191800     0.103900    Uiso  ? O
   O25        1.0     0.631000     0.066600     0.073700    Uiso  ? O
   O26        1.0     0.033900     0.309900     0.102400    Uiso  ? O
   O27        1.0     0.466800     0.007400     0.116600    Uiso  ? O
   O28        1.0     0.374100     0.895600     0.209900    Uiso  ? O
   O29        1.0     0.461100     0.191300     0.395200    Uiso  ? O
   O30        1.0     0.368300     0.066600     0.426900    Uiso  ? O
   O31        1.0     0.032400     0.690200     0.594500    Uiso  ? O
   O32        1.0     0.464700     0.992700     0.615600    Uiso  ? O
   O33        1.0     0.372200     0.104600     0.709400    Uiso  ? O
   O34        1.0     0.459500     0.808400     0.896000    Uiso  ? O
   O35        1.0     0.366400     0.933500     0.925900    Uiso  ? O
   O36        1.0     0.967200     0.689800     0.908100    Uiso  ? O
   O37        1.0     0.536200     0.992300     0.885300    Uiso  ? O
   O38        1.0     0.626900     0.105200     0.791500    Uiso  ? O
   O39        1.0     0.539300     0.808400     0.604900    Uiso  ? O
   O40        1.0     0.632700     0.933000     0.574600    Uiso  ? O
