
#======================================================================
# CRYSTAL DATA
#----------------------------------------------------------------------
data_VESTA_phase_1

_chemical_name_common                  'MIL120-naphtha-opt'
_cell_length_a                         13.324511
_cell_length_b                         13.383624
_cell_length_c                         7.669200
_cell_angle_alpha                      104.915527
_cell_angle_beta                       105.063362
_cell_angle_gamma                      138.225204
_cell_volume                           627.125127
_space_group_name_H-M_alt              'P 1'
_space_group_IT_number                 1

loop_
_space_group_symop_operation_xyz
   'x, y, z'

loop_
   _atom_site_label
   _atom_site_occupancy
   _atom_site_fract_x
   _atom_site_fract_y
   _atom_site_fract_z
   _atom_site_adp_type
   _atom_site_U_iso_or_equiv
   _atom_site_type_symbol
   Al1        1.0     0.701055     0.276216     0.983539    Uiso  ? Al
   Al2        1.0     0.286211     0.700319     0.987183    Uiso  ? Al
   Al3        1.0     0.490408     0.987447     0.483548    Uiso  ? Al
   Al4        1.0     0.992437     0.484967     0.483514    Uiso  ? Al
   H1         1.0     0.524370     0.418691     0.795225    Uiso  ? H
   H2         1.0     0.477587     0.572734     0.194436    Uiso  ? H
   H3         1.0     0.572538     0.466575     0.189408    Uiso  ? H
   H4         1.0     0.428823     0.524460     0.799782    Uiso  ? H
   H5         1.0     0.633120     0.098494     0.127264    Uiso  ? H
   H6         1.0     0.060111     0.677463     0.361734    Uiso  ? H
   H7         1.0     0.830289     0.231613     0.877363    Uiso  ? H
   H8         1.0     0.364836     0.902028     0.701672    Uiso  ? H
   H9         1.0     0.689016     0.062173     0.368940    Uiso  ? H
   H10        1.0     0.103585     0.625067     0.127459    Uiso  ? H
   H11        1.0     0.911185     0.363486     0.705104    Uiso  ? H
   H12        1.0     0.232381     0.821311     0.874558    Uiso  ? H
   C1         1.0     0.603057     0.301249     0.642923    Uiso  ? C
   C2         1.0     0.396853     0.688080     0.343481    Uiso  ? C
   C3         1.0     0.683739     0.381280     0.335499    Uiso  ? C
   C4         1.0     0.315926     0.607924     0.651055    Uiso  ? C
   C5         1.0     0.586578     0.386444     0.576693    Uiso  ? C
   C6         1.0     0.416355     0.605983     0.413693    Uiso  ? C
   C7         1.0     0.601935     0.401694     0.405522    Uiso  ? C
   C8         1.0     0.400961     0.590807     0.584878    Uiso  ? C
   C9         1.0     0.496871     0.491701     0.584699    Uiso  ? C
   C10        1.0     0.506757     0.501469     0.406588    Uiso  ? C
   C11        1.0     0.536932     0.432530     0.665275    Uiso  ? C
   C12        1.0     0.466196     0.560065     0.325447    Uiso  ? C
   C13        1.0     0.560083     0.455491     0.320680    Uiso  ? C
   C14        1.0     0.442877     0.537110     0.669974    Uiso  ? C
   O1         1.0     0.987142     0.549193     0.290140    Uiso  ? O
   O2         1.0     0.004094     0.424452     0.676522    Uiso  ? O
   O3         1.0     0.426402     0.994738     0.673395    Uiso  ? O
   O4         1.0     0.558018     0.986463     0.293064    Uiso  ? O
   O5         1.0     0.777191     0.249673     0.810934    Uiso  ? O
   O6         1.0     0.222113     0.740279     0.153861    Uiso  ? O
   O7         1.0     0.747821     0.217819     0.154200    Uiso  ? O
   O8         1.0     0.253140     0.770989     0.810470    Uiso  ? O
   O9         1.0     0.696400     0.384151     0.869617    Uiso  ? O
   O10        1.0     0.301222     0.601678     0.115554    Uiso  ? O
   O11        1.0     0.596335     0.284707     0.107356    Uiso  ? O
   O12        1.0     0.399503     0.701693     0.877752    Uiso  ? O
   O13        1.0     0.514954     0.146053     0.466146    Uiso  ? O
   O14        1.0     0.485635     0.844653     0.519624    Uiso  ? O
   O15        1.0     0.842534     0.471903     0.513432    Uiso  ? O
   O16        1.0     0.158555     0.518155     0.472750    Uiso  ? O
