
#======================================================================
# CRYSTAL DATA
#----------------------------------------------------------------------
data_VESTA_phase_1

_chemical_name_common                  'FeMIL59-OMS'
_cell_length_a                         19.002800
_cell_length_b                         19.002800
_cell_length_c                         19.002800
_cell_angle_alpha                      90.000000
_cell_angle_beta                       90.000000
_cell_angle_gamma                      90.000000
_cell_volume                           6862.032834
_space_group_name_H-M_alt              'P 1'
_space_group_IT_number                 1

loop_
_space_group_symop_operation_xyz
   'x, y, z'

loop_
   _atom_site_label
   _atom_site_occupancy
   _atom_site_fract_x
   _atom_site_fract_y
   _atom_site_fract_z
   _atom_site_adp_type
   _atom_site_U_iso_or_equiv
   _atom_site_type_symbol
   Fe1        1.0     0.755408     0.384036     0.149325    Uiso  ? Fe
   Fe2        1.0     0.737353     0.615353     0.648985    Uiso  ? Fe
   Fe3        1.0     0.240344     0.884081     0.355671    Uiso  ? Fe
   Fe4        1.0     0.255678     0.116984     0.850855    Uiso  ? Fe
   Fe5        1.0     0.140803     0.740947     0.401988    Uiso  ? Fe
   Fe6        1.0     0.644868     0.743143     0.612868    Uiso  ? Fe
   Fe7        1.0     0.354851     0.262679     0.901349    Uiso  ? Fe
   Fe8        1.0     0.853936     0.237803     0.097303    Uiso  ? Fe
   Fe9        1.0     0.387362     0.155394     0.756695    Uiso  ? Fe
   Fe10       1.0     0.597959     0.645132     0.757518    Uiso  ? Fe
   Fe11       1.0     0.888742     0.348176     0.240610    Uiso  ? Fe
   Fe12       1.0     0.113586     0.851624     0.261300    Uiso  ? Fe
   Fe13       1.0     0.240924     0.614085     0.848698    Uiso  ? Fe
   Fe14       1.0     0.248670     0.396756     0.353203    Uiso  ? Fe
   Fe15       1.0     0.761214     0.112573     0.653831    Uiso  ? Fe
   Fe16       1.0     0.760420     0.905339     0.139820    Uiso  ? Fe
   Fe17       1.0     0.854151     0.244679     0.618428    Uiso  ? Fe
   Fe18       1.0     0.353372     0.261720     0.384379    Uiso  ? Fe
   Fe19       1.0     0.651809     0.764279     0.111794    Uiso  ? Fe
   Fe20       1.0     0.145957     0.752938     0.894150    Uiso  ? Fe
   Fe21       1.0     0.613681     0.854864     0.238775    Uiso  ? Fe
   Fe22       1.0     0.388879     0.350659     0.256146    Uiso  ? Fe
   Fe23       1.0     0.114074     0.648335     0.755572    Uiso  ? Fe
   Fe24       1.0     0.904649     0.145046     0.764495    Uiso  ? Fe
   H1         1.0     0.420599     0.771946     0.293910    Uiso  ? H
   H2         1.0     0.496535     0.685063     0.231136    Uiso  ? H
   H3         1.0     0.469626     0.556894     0.239141    Uiso  ? H
   H4         1.0     0.291873     0.602781     0.371712    Uiso  ? H
   H5         1.0     0.535982     0.668250     0.866970    Uiso  ? H
   H6         1.0     0.069557     0.227809     0.799242    Uiso  ? H
   H7         1.0     0.031488     0.442511     0.735016    Uiso  ? H
   H8         1.0     0.207488     0.393615     0.868680    Uiso  ? H
   H9         1.0     0.571234     0.270885     0.213387    Uiso  ? H
   H10        1.0     0.497992     0.181203     0.274979    Uiso  ? H
   H11        1.0     0.527289     0.054011     0.264609    Uiso  ? H
   H12        1.0     0.703067     0.106094     0.131493    Uiso  ? H
   H13        1.0     0.919610     0.724559     0.700664    Uiso  ? H
   H14        1.0     0.994297     0.809824     0.766263    Uiso  ? H
   H15        1.0     0.967035     0.938491     0.761144    Uiso  ? H
   H16        1.0     0.792357     0.895461     0.623969    Uiso  ? H
   H17        1.0     0.285712     0.425804     0.768078    Uiso  ? H
   H18        1.0     0.221039     0.497724     0.679229    Uiso  ? H
   H19        1.0     0.230839     0.468475     0.551824    Uiso  ? H
   H20        1.0     0.369454     0.296461     0.602320    Uiso  ? H
   H21        1.0     0.792033     0.077981     0.231345    Uiso  ? H
   H22        1.0     0.734106     0.041152     0.448008    Uiso  ? H
   H23        1.0     0.874391     0.210898     0.395284    Uiso  ? H
   H24        1.0     0.205065     0.581480     0.270233    Uiso  ? H
   H25        1.0     0.271269     0.509222     0.182913    Uiso  ? H
   H26        1.0     0.265760     0.539374     0.055378    Uiso  ? H
   H27        1.0     0.130218     0.714573     0.102707    Uiso  ? H
   H28        1.0     0.708698     0.921821     0.722868    Uiso  ? H
   H29        1.0     0.778181     0.990519     0.810616    Uiso  ? H
   H30        1.0     0.771728     0.959277     0.937938    Uiso  ? H
   H31        1.0     0.626735     0.792353     0.889521    Uiso  ? H
   H32        1.0     0.774616     0.295205     0.427182    Uiso  ? H
   H33        1.0     0.685549     0.231026     0.498836    Uiso  ? H
   H34        1.0     0.558627     0.236042     0.465387    Uiso  ? H
   H35        1.0     0.610379     0.369658     0.290190    Uiso  ? H
   H36        1.0     0.229558     0.809483     0.075554    Uiso  ? H
   H37        1.0     0.443792     0.749704     0.029514    Uiso  ? H
   H38        1.0     0.397407     0.872832     0.214099    Uiso  ? H
   H39        1.0     0.340878     0.378476     0.956730    Uiso  ? H
   H40        1.0     0.274654     0.208768     0.573470    Uiso  ? H
   H41        1.0     0.186832     0.274478     0.501563    Uiso  ? H
   H42        1.0     0.059647     0.270099     0.533325    Uiso  ? H
   H43        1.0     0.108094     0.134496     0.707940    Uiso  ? H
   H44        1.0     0.130961     0.617349     0.435651    Uiso  ? H
   H45        1.0     0.730698     0.710189     0.921527    Uiso  ? H
   H46        1.0     0.819658     0.770713     0.996507    Uiso  ? H
   H47        1.0     0.947235     0.762350     0.966372    Uiso  ? H
   H48        1.0     0.896255     0.630932     0.789020    Uiso  ? H
   H49        1.0     0.857719     0.114835     0.056603    Uiso  ? H
   H50        1.0     0.575471     0.227558     0.705217    Uiso  ? H
   H51        1.0     0.501654     0.316633     0.766781    Uiso  ? H
   H52        1.0     0.534084     0.443759     0.761038    Uiso  ? H
   H53        1.0     0.710690     0.392511     0.628889    Uiso  ? H
   H54        1.0     0.923994     0.770567     0.213344    Uiso  ? H
   H55        1.0     0.994742     0.679593     0.276285    Uiso  ? H
   H56        1.0     0.962010     0.552967     0.265980    Uiso  ? H
   H57        1.0     0.789517     0.608520     0.130089    Uiso  ? H
   H58        1.0     0.419114     0.730452     0.788757    Uiso  ? H
   H59        1.0     0.491799     0.818210     0.723994    Uiso  ? H
   H60        1.0     0.463477     0.946149     0.732397    Uiso  ? H
   H61        1.0     0.289902     0.897987     0.869588    Uiso  ? H
   H62        1.0     0.082367     0.274259     0.288952    Uiso  ? H
   H63        1.0     0.037654     0.058085     0.236238    Uiso  ? H
   H64        1.0     0.210092     0.107918     0.374466    Uiso  ? H
   H65        1.0     0.942270     0.137775     0.888056    Uiso  ? H
   H66        1.0     0.699969     0.580240     0.225148    Uiso  ? H
   H67        1.0     0.761571     0.504791     0.312272    Uiso  ? H
   H68        1.0     0.756421     0.534472     0.440338    Uiso  ? H
   H69        1.0     0.626880     0.713856     0.392951    Uiso  ? H
   H70        1.0     0.145674     0.453011     0.325739    Uiso  ? H
   H71        1.0     0.202671     0.924637     0.775912    Uiso  ? H
   H72        1.0     0.267023     0.998892     0.689715    Uiso  ? H
   H73        1.0     0.263466     0.969338     0.561770    Uiso  ? H
   H74        1.0     0.128702     0.793142     0.606858    Uiso  ? H
   H75        1.0     0.789929     0.427599     0.728452    Uiso  ? H
   H76        1.0     0.723548     0.500039     0.815528    Uiso  ? H
   H77        1.0     0.726975     0.468987     0.942834    Uiso  ? H
   H78        1.0     0.863248     0.294315     0.896092    Uiso  ? H
   H79        1.0     0.290130     0.078622     0.272428    Uiso  ? H
   H80        1.0     0.231799     0.031566     0.057877    Uiso  ? H
   H81        1.0     0.369029     0.205893     0.102330    Uiso  ? H
   H82        1.0     0.876453     0.959654     0.148379    Uiso  ? H
   H83        1.0     0.224898     0.702925     0.572126    Uiso  ? H
   H84        1.0     0.311471     0.769180     0.499201    Uiso  ? H
   H85        1.0     0.439338     0.763807     0.527897    Uiso  ? H
   H86        1.0     0.394198     0.627596     0.702956    Uiso  ? H
   H87        1.0     0.771490     0.196655     0.930496    Uiso  ? H
   H88        1.0     0.683009     0.263191     0.000487    Uiso  ? H
   H89        1.0     0.556676     0.263467     0.963756    Uiso  ? H
   H90        1.0     0.608080     0.130270     0.788068    Uiso  ? H
   H91        1.0     0.722838     0.799230     0.416219    Uiso  ? H
   H92        1.0     0.809241     0.734832     0.490554    Uiso  ? H
   H93        1.0     0.937714     0.742211     0.463186    Uiso  ? H
   H94        1.0     0.892362     0.880858     0.290126    Uiso  ? H
   H95        1.0     0.274818     0.301701     0.077280    Uiso  ? H
   H96        1.0     0.060882     0.237892     0.033937    Uiso  ? H
   H97        1.0     0.104767     0.375849     0.207591    Uiso  ? H
   H98        1.0     0.118311     0.868684     0.916415    Uiso  ? H
   H99        1.0     0.998160     0.315682     0.733004    Uiso  ? H
   H100       1.0     0.008961     0.185734     0.226173    Uiso  ? H
   H101       1.0     0.724950     0.009428     0.320864    Uiso  ? H
   H102       1.0     0.224596     0.004652     0.186033    Uiso  ? H
   H103       1.0     0.316215     0.749374     0.998245    Uiso  ? H
   H104       1.0     0.189092     0.234088     0.005134    Uiso  ? H
   C1         1.0     0.750774     0.367041     0.305554    Uiso  ? C
   C2         1.0     0.501489     0.305086     0.354697    Uiso  ? C
   C3         1.0     0.697893     0.336274     0.354268    Uiso  ? C
   C4         1.0     0.626604     0.340083     0.336423    Uiso  ? C
   C5         1.0     0.576644     0.304063     0.376530    Uiso  ? C
   C6         1.0     0.598074     0.264643     0.435182    Uiso  ? C
   C7         1.0     0.718992     0.297797     0.413689    Uiso  ? C
   C8         1.0     0.668979     0.261993     0.453673    Uiso  ? C
   C9         1.0     0.754627     0.637770     0.800881    Uiso  ? C
   C10        1.0     0.005190     0.692345     0.856156    Uiso  ? C
   C11        1.0     0.807933     0.667375     0.850297    Uiso  ? C
   C12        1.0     0.879552     0.661168     0.834668    Uiso  ? C
   C13        1.0     0.929447     0.695286     0.876626    Uiso  ? C
   C14        1.0     0.907803     0.735080     0.934927    Uiso  ? C
   C15        1.0     0.786556     0.706041     0.909518    Uiso  ? C
   C16        1.0     0.836494     0.739799     0.951369    Uiso  ? C
   C17        1.0     0.256527     0.871632     0.201995    Uiso  ? C
   C18        1.0     0.504920     0.810685     0.141497    Uiso  ? C
   C19        1.0     0.308365     0.843987     0.150135    Uiso  ? C
   C20        1.0     0.380139     0.846053     0.166542    Uiso  ? C
   C21        1.0     0.428871     0.812163     0.123035    Uiso  ? C
   C22        1.0     0.405500     0.776839     0.062438    Uiso  ? C
   C23        1.0     0.285410     0.810126     0.088583    Uiso  ? C
   C24        1.0     0.334221     0.776590     0.045255    Uiso  ? C
   C25        1.0     0.248737     0.135724     0.694212    Uiso  ? C
   C26        1.0     0.000801     0.199094     0.643130    Uiso  ? C
   C27        1.0     0.196835     0.167606     0.645207    Uiso  ? C
   C28        1.0     0.125325     0.164222     0.662157    Uiso  ? C
   C29        1.0     0.076136     0.200808     0.621616    Uiso  ? C
   C30        1.0     0.098438     0.240797     0.563734    Uiso  ? C
   C31        1.0     0.218882     0.206470     0.586348    Uiso  ? C
   C32        1.0     0.169620     0.243115     0.546193    Uiso  ? C
   C33        1.0     0.301031     0.743683     0.367752    Uiso  ? C
   C34        1.0     0.360969     0.495605     0.307492    Uiso  ? C
   C35        1.0     0.351648     0.692570     0.336484    Uiso  ? C
   C36        1.0     0.337219     0.620593     0.341644    Uiso  ? C
   C37        1.0     0.379808     0.571923     0.306726    Uiso  ? C
   C38        1.0     0.437483     0.595337     0.266980    Uiso  ? C
   C39        1.0     0.409921     0.715778     0.297561    Uiso  ? C
   C40        1.0     0.452343     0.667053     0.262776    Uiso  ? C
   C41        1.0     0.800129     0.754239     0.627908    Uiso  ? C
   C42        1.0     0.860551     0.001038     0.691464    Uiso  ? C
   C43        1.0     0.851377     0.804820     0.658330    Uiso  ? C
   C44        1.0     0.837262     0.876943     0.654232    Uiso  ? C
   C45        1.0     0.879180     0.924769     0.691000    Uiso  ? C
   C46        1.0     0.935916     0.900475     0.731558    Uiso  ? C
   C47        1.0     0.909040     0.780788     0.697733    Uiso  ? C
   C48        1.0     0.950736     0.828736     0.734397    Uiso  ? C
   C49        1.0     0.193258     0.253870     0.868556    Uiso  ? C
   C50        1.0     0.141596     0.501422     0.803536    Uiso  ? C
   C51        1.0     0.143807     0.305448     0.836741    Uiso  ? C
   C52        1.0     0.161234     0.376857     0.839463    Uiso  ? C
   C53        1.0     0.120670     0.426118     0.803141    Uiso  ? C
   C54        1.0     0.062027     0.403720     0.764153    Uiso  ? C
   C55        1.0     0.083935     0.283342     0.799547    Uiso  ? C
   C56        1.0     0.043735     0.332758     0.763026    Uiso  ? C
   C57        1.0     0.692230     0.245952     0.137960    Uiso  ? C
   C58        1.0     0.637745     0.997237     0.190028    Uiso  ? C
   C59        1.0     0.642276     0.194051     0.169222    Uiso  ? C
   C60        1.0     0.657772     0.122530     0.162390    Uiso  ? C
   C61        1.0     0.616376     0.072239     0.196495    Uiso  ? C
   C62        1.0     0.558827     0.093474     0.237493    Uiso  ? C
   C63        1.0     0.583704     0.215165     0.208875    Uiso  ? C
   C64        1.0     0.542608     0.164802     0.243091    Uiso  ? C
   C65        1.0     0.362640     0.308426     0.744192    Uiso  ? C
   C66        1.0     0.305545     0.361866     0.493518    Uiso  ? C
   C67        1.0     0.330939     0.356376     0.690713    Uiso  ? C
   C68        1.0     0.337548     0.340944     0.619061    Uiso  ? C
   C69        1.0     0.301696     0.381560     0.569278    Uiso  ? C
   C70        1.0     0.259435     0.438056     0.591107    Uiso  ? C
   C71        1.0     0.289935     0.413912     0.712208    Uiso  ? C
   C72        1.0     0.254109     0.454145     0.662419    Uiso  ? C
   C73        1.0     0.628503     0.805831     0.749227    Uiso  ? C
   C74        1.0     0.663447     0.852927     0.800909    Uiso  ? C
   C75        1.0     0.659051     0.836366     0.872424    Uiso  ? C
   C76        1.0     0.697813     0.874868     0.921409    Uiso  ? C
   C77        1.0     0.740934     0.930534     0.899025    Uiso  ? C
   C78        1.0     0.705645     0.909338     0.778694    Uiso  ? C
   C79        1.0     0.744429     0.947634     0.827834    Uiso  ? C
   C80        1.0     0.869393     0.195544     0.254065    Uiso  ? C
   C81        1.0     0.808920     0.147430     0.505168    Uiso  ? C
   C82        1.0     0.836599     0.149044     0.307950    Uiso  ? C
   C83        1.0     0.842331     0.166248     0.379266    Uiso  ? C
   C84        1.0     0.805602     0.127123     0.429583    Uiso  ? C
   C85        1.0     0.763123     0.070563     0.408288    Uiso  ? C
   C86        1.0     0.795271     0.091472     0.286999    Uiso  ? C
   C87        1.0     0.758257     0.052966     0.337303    Uiso  ? C
   C88        1.0     0.130023     0.700253     0.243857    Uiso  ? C
   C89        1.0     0.195584     0.647196     0.995056    Uiso  ? C
   C90        1.0     0.163599     0.652424     0.191646    Uiso  ? C
   C91        1.0     0.160325     0.669062     0.120053    Uiso  ? C
   C92        1.0     0.196816     0.627985     0.071113    Uiso  ? C
   C93        1.0     0.236825     0.570314     0.093976    Uiso  ? C
   C94        1.0     0.202837     0.593984     0.214301    Uiso  ? C
   C95        1.0     0.239640     0.553602     0.165364    Uiso  ? C
   C96        1.0     0.252803     0.632070     0.693243    Uiso  ? C
   C97        1.0     0.500378     0.692311     0.635626    Uiso  ? C
   C98        1.0     0.304224     0.661942     0.642572    Uiso  ? C
   C99        1.0     0.376107     0.657603     0.657642    Uiso  ? C
   C100       1.0     0.424591     0.693881     0.615919    Uiso  ? C
   C101       1.0     0.401080     0.734508     0.558953    Uiso  ? C
   C102       1.0     0.280923     0.700818     0.584170    Uiso  ? C
   C103       1.0     0.329542     0.737370     0.543142    Uiso  ? C
   C104       1.0     0.246556     0.373038     0.198249    Uiso  ? C
   C105       1.0     0.999108     0.308390     0.141133    Uiso  ? C
   C106       1.0     0.195121     0.342718     0.147396    Uiso  ? C
   C107       1.0     0.123186     0.345891     0.162491    Uiso  ? C
   C108       1.0     0.075009     0.308686     0.121396    Uiso  ? C
   C109       1.0     0.098901     0.267991     0.064567    Uiso  ? C
   C110       1.0     0.218770     0.303562     0.089359    Uiso  ? C
   C111       1.0     0.170466     0.265942     0.048810    Uiso  ? C
   C112       1.0     0.748244     0.128652     0.806565    Uiso  ? C
   C113       1.0     0.499478     0.197091     0.852474    Uiso  ? C
   C114       1.0     0.695132     0.160536     0.854215    Uiso  ? C
   C115       1.0     0.624158     0.158992     0.834889    Uiso  ? C
   C116       1.0     0.574521     0.195750     0.874653    Uiso  ? C
   C117       1.0     0.595948     0.233931     0.934184    Uiso  ? C
   C118       1.0     0.716274     0.197021     0.914917    Uiso  ? C
   C119       1.0     0.666458     0.233883     0.954238    Uiso  ? C
   C120       1.0     0.752233     0.875867     0.297595    Uiso  ? C
   C121       1.0     0.802395     0.844373     0.348815    Uiso  ? C
   C122       1.0     0.874441     0.849716     0.334673    Uiso  ? C
   C123       1.0     0.922811     0.812788     0.375811    Uiso  ? C
   C124       1.0     0.899244     0.771473     0.432326    Uiso  ? C
   C125       1.0     0.778998     0.803518     0.405724    Uiso  ? C
   C126       1.0     0.827563     0.767400     0.447208    Uiso  ? C
   C127       1.0     0.697572     0.251699     0.634446    Uiso  ? C
   C128       1.0     0.644307     0.501344     0.692816    Uiso  ? C
   C129       1.0     0.647748     0.304564     0.663409    Uiso  ? C
   C130       1.0     0.664473     0.376079     0.658393    Uiso  ? C
   C131       1.0     0.623355     0.425891     0.693443    Uiso  ? C
   C132       1.0     0.564711     0.404323     0.732841    Uiso  ? C
   C133       1.0     0.588183     0.283299     0.701618    Uiso  ? C
   C134       1.0     0.547025     0.333258     0.736159    Uiso  ? C
   C135       1.0     0.201007     0.248926     0.365680    Uiso  ? C
   C136       1.0     0.143960     0.999027     0.309628    Uiso  ? C
   C137       1.0     0.150761     0.196541     0.335575    Uiso  ? C
   C138       1.0     0.165579     0.124754     0.342631    Uiso  ? C
   C139       1.0     0.124803     0.075024     0.306781    Uiso  ? C
   C140       1.0     0.068288     0.097254     0.264727    Uiso  ? C
   C141       1.0     0.093471     0.218327     0.294318    Uiso  ? C
   C142       1.0     0.052580     0.168638     0.259077    Uiso  ? C
   C143       1.0     0.804993     0.749622     0.137200    Uiso  ? C
   C144       1.0     0.853578     0.497220     0.193176    Uiso  ? C
   C145       1.0     0.852185     0.695080     0.168282    Uiso  ? C
   C146       1.0     0.834746     0.623860     0.161666    Uiso  ? C
   C147       1.0     0.874386     0.572769     0.196853    Uiso  ? C
   C148       1.0     0.932126     0.593197     0.238184    Uiso  ? C
   C149       1.0     0.910672     0.715019     0.208798    Uiso  ? C
   C150       1.0     0.950216     0.664041     0.243762    Uiso  ? C
   C151       1.0     0.299284     0.756520     0.862599    Uiso  ? C
   C152       1.0     0.349758     0.808934     0.832843    Uiso  ? C
   C153       1.0     0.334710     0.880758     0.838448    Uiso  ? C
   C154       1.0     0.375724     0.930101     0.802519    Uiso  ? C
   C155       1.0     0.432532     0.907342     0.761121    Uiso  ? C
   C156       1.0     0.407492     0.786470     0.792643    Uiso  ? C
   C157       1.0     0.448212     0.835855     0.756607    Uiso  ? C
   C158       1.0     0.632778     0.702990     0.250962    Uiso  ? C
   C159       1.0     0.689154     0.644662     0.500348    Uiso  ? C
   C160       1.0     0.659523     0.651766     0.303600    Uiso  ? C
   C161       1.0     0.655504     0.667516     0.375402    Uiso  ? C
   C162       1.0     0.690140     0.625028     0.424433    Uiso  ? C
   C163       1.0     0.728626     0.566300     0.401603    Uiso  ? C
   C164       1.0     0.696784     0.592052     0.281135    Uiso  ? C
   C165       1.0     0.731437     0.549960     0.330204    Uiso  ? C
   C166       1.0     0.365142     0.197556     0.243468    Uiso  ? C
   C167       1.0     0.305142     0.138895     0.996489    Uiso  ? C
   C168       1.0     0.333565     0.146994     0.192808    Uiso  ? C
   C169       1.0     0.338414     0.161174     0.120785    Uiso  ? C
   C170       1.0     0.302179     0.119364     0.072408    Uiso  ? C
   C171       1.0     0.260931     0.062914     0.096052    Uiso  ? C
   C172       1.0     0.293561     0.089467     0.216276    Uiso  ? C
   C173       1.0     0.257155     0.048072     0.167821    Uiso  ? C
   C174       1.0     0.130533     0.802921     0.747321    Uiso  ? C
   C175       1.0     0.194417     0.859656     0.501042    Uiso  ? C
   C176       1.0     0.161457     0.854289     0.696761    Uiso  ? C
   C177       1.0     0.158158     0.838773     0.624931    Uiso  ? C
   C178       1.0     0.194797     0.880266     0.576573    Uiso  ? C
   C179       1.0     0.234279     0.938076     0.599948    Uiso  ? C
   C180       1.0     0.200001     0.912859     0.719917    Uiso  ? C
   C181       1.0     0.236253     0.954304     0.671422    Uiso  ? C
   C182       1.0     0.864375     0.306719     0.756404    Uiso  ? C
   C183       1.0     0.798677     0.359468     0.002619    Uiso  ? C
   C184       1.0     0.830176     0.355993     0.806901    Uiso  ? C
   C185       1.0     0.833138     0.339689     0.878505    Uiso  ? C
   C186       1.0     0.796306     0.380476     0.927269    Uiso  ? C
   C187       1.0     0.756384     0.438203     0.904427    Uiso  ? C
   C188       1.0     0.791549     0.414728     0.784256    Uiso  ? C
   C189       1.0     0.754611     0.455291     0.833103    Uiso  ? C
   C190       1.0     0.998950     0.813102     0.356869    Uiso  ? C
   C191       1.0     0.355866     0.005878     0.805108    Uiso  ? C
   C192       1.0     0.696289     0.854466     0.996890    Uiso  ? C
   O1         1.0     0.800760     0.480877     0.154724    Uiso  ? O
   O2         1.0     0.678426     0.311853     0.146350    Uiso  ? O
   O3         1.0     0.727812     0.398799     0.250600    Uiso  ? O
   O4         1.0     0.758847     0.393302     0.045750    Uiso  ? O
   O5         1.0     0.697220     0.518602     0.654538    Uiso  ? O
   O6         1.0     0.813160     0.688337     0.633472    Uiso  ? O
   O7         1.0     0.777500     0.605961     0.745648    Uiso  ? O
   O8         1.0     0.724873     0.606944     0.542920    Uiso  ? O
   O9         1.0     0.196130     0.981055     0.348169    Uiso  ? O
   O10        1.0     0.315894     0.809485     0.364028    Uiso  ? O
   O11        1.0     0.280741     0.898461     0.258902    Uiso  ? O
   O12        1.0     0.234243     0.894801     0.459190    Uiso  ? O
   O13        1.0     0.302157     0.022177     0.842440    Uiso  ? O
   O14        1.0     0.179374     0.188037     0.860444    Uiso  ? O
   O15        1.0     0.224981     0.105887     0.749797    Uiso  ? O
   O16        1.0     0.263919     0.105466     0.954379    Uiso  ? O
   O17        1.0     0.155866     0.807867     0.483724    Uiso  ? O
   O18        1.0     0.132772     0.683803     0.308544    Uiso  ? O
   O19        1.0     0.245547     0.718455     0.395392    Uiso  ? O
   O20        1.0     0.040150     0.777917     0.395753    Uiso  ? O
   O21        1.0     0.119282     0.663236     0.455483    Uiso  ? O
   O22        1.0     0.652870     0.698922     0.517305    Uiso  ? O
   O23        1.0     0.635167     0.820701     0.683547    Uiso  ? O
   O24        1.0     0.743875     0.779427     0.600515    Uiso  ? O
   O25        1.0     0.541589     0.734919     0.602719    Uiso  ? O
   O26        1.0     0.347030     0.187793     0.979277    Uiso  ? O
   O27        1.0     0.354932     0.323432     0.808683    Uiso  ? O
   O28        1.0     0.247035     0.277585     0.900431    Uiso  ? O
   O29        1.0     0.457464     0.234277     0.888422    Uiso  ? O
   O30        1.0     0.370507     0.337030     0.961919    Uiso  ? O
   O31        1.0     0.839294     0.309069     0.018822    Uiso  ? O
   O32        1.0     0.862595     0.179244     0.189730    Uiso  ? O
   O33        1.0     0.745655     0.221807     0.106129    Uiso  ? O
   O34        1.0     0.957569     0.271409     0.104588    Uiso  ? O
   O35        1.0     0.869465     0.161629     0.038955    Uiso  ? O
   O36        1.0     0.483013     0.160943     0.797356    Uiso  ? O
   O37        1.0     0.314359     0.141542     0.679735    Uiso  ? O
   O38        1.0     0.395076     0.253470     0.721006    Uiso  ? O
   O39        1.0     0.392646     0.049380     0.769352    Uiso  ? O
   O40        1.0     0.518738     0.650277     0.684032    Uiso  ? O
   O41        1.0     0.690029     0.647055     0.815579    Uiso  ? O
   O42        1.0     0.595481     0.752368     0.772495    Uiso  ? O
   O43        1.0     0.609373     0.543066     0.731758    Uiso  ? O
   O44        1.0     0.538887     0.630127     0.832835    Uiso  ? O
   O45        1.0     0.982163     0.345369     0.195639    Uiso  ? O
   O46        1.0     0.816044     0.358337     0.319457    Uiso  ? O
   O47        1.0     0.901672     0.250887     0.276411    Uiso  ? O
   O48        1.0     0.889631     0.453611     0.229682    Uiso  ? O
   O49        1.0     0.016837     0.847833     0.301554    Uiso  ? O
   O50        1.0     0.191048     0.864306     0.188269    Uiso  ? O
   O51        1.0     0.101129     0.756763     0.220061    Uiso  ? O
   O52        1.0     0.107378     0.956667     0.272034    Uiso  ? O
   O53        1.0     0.194375     0.519356     0.841494    Uiso  ? O
   O54        1.0     0.313777     0.691339     0.856456    Uiso  ? O
   O55        1.0     0.276634     0.603803     0.749569    Uiso  ? O
   O56        1.0     0.231782     0.609732     0.952627    Uiso  ? O
   O57        1.0     0.307482     0.479452     0.345086    Uiso  ? O
   O58        1.0     0.186727     0.313890     0.354834    Uiso  ? O
   O59        1.0     0.219971     0.400589     0.253999    Uiso  ? O
   O60        1.0     0.266006     0.397347     0.452141    Uiso  ? O
   O61        1.0     0.173388     0.452552     0.369194    Uiso  ? O
   O62        1.0     0.805942     0.018714     0.655093    Uiso  ? O
   O63        1.0     0.683610     0.186404     0.643253    Uiso  ? O
   O64        1.0     0.725200     0.098571     0.750137    Uiso  ? O
   O65        1.0     0.771533     0.111791     0.548286    Uiso  ? O
   O66        1.0     0.685877     0.982634     0.146680    Uiso  ? O
   O67        1.0     0.820542     0.813986     0.146789    Uiso  ? O
   O68        1.0     0.776837     0.910813     0.246436    Uiso  ? O
   O69        1.0     0.734588     0.889850     0.038629    Uiso  ? O
   O70        1.0     0.833893     0.966238     0.120602    Uiso  ? O
   O71        1.0     0.848133     0.199567     0.521922    Uiso  ? O
   O72        1.0     0.859823     0.321272     0.690154    Uiso  ? O
   O73        1.0     0.753360     0.274549     0.604089    Uiso  ? O
   O74        1.0     0.957871     0.238457     0.608581    Uiso  ? O
   O75        1.0     0.346320     0.311275     0.476256    Uiso  ? O
   O76        1.0     0.359976     0.184928     0.309390    Uiso  ? O
   O77        1.0     0.255122     0.225300     0.397763    Uiso  ? O
   O78        1.0     0.457964     0.269163     0.391501    Uiso  ? O
   O79        1.0     0.657556     0.801898     0.014283    Uiso  ? O
   O80        1.0     0.639273     0.688947     0.185658    Uiso  ? O
   O81        1.0     0.750266     0.727886     0.104018    Uiso  ? O
   O82        1.0     0.546468     0.775212     0.102969    Uiso  ? O
   O83        1.0     0.158061     0.700820     0.979178    Uiso  ? O
   O84        1.0     0.136647     0.817202     0.813020    Uiso  ? O
   O85        1.0     0.243785     0.782785     0.890479    Uiso  ? O
   O86        1.0     0.047131     0.728207     0.894648    Uiso  ? O
   O87        1.0     0.126195     0.828638     0.947862    Uiso  ? O
   O88        1.0     0.524131     0.846072     0.196215    Uiso  ? O
   O89        1.0     0.686337     0.863270     0.307900    Uiso  ? O
   O90        1.0     0.607700     0.761133     0.274885    Uiso  ? O
   O91        1.0     0.605833     0.952966     0.230852    Uiso  ? O
   O92        1.0     0.485341     0.340863     0.300114    Uiso  ? O
   O93        1.0     0.311891     0.367686     0.184184    Uiso  ? O
   O94        1.0     0.394020     0.252955     0.218035    Uiso  ? O
   O95        1.0     0.398414     0.454243     0.270234    Uiso  ? O
   O96        1.0     0.020751     0.655715     0.801964    Uiso  ? O
   O97        1.0     0.187166     0.638795     0.679541    Uiso  ? O
   O98        1.0     0.102270     0.747796     0.721585    Uiso  ? O
   O99        1.0     0.105857     0.543594     0.765236    Uiso  ? O
   O100       1.0     0.984732     0.159794     0.694535    Uiso  ? O
   O101       1.0     0.812761     0.133834     0.822552    Uiso  ? O
   O102       1.0     0.894974     0.253098     0.781546    Uiso  ? O
   O103       1.0     0.898113     0.041842     0.728180    Uiso  ? O
   O104       1.0     0.961480     0.128966     0.841253    Uiso  ? O
   O105       1.0     0.830378     0.323403     0.166086    Uiso  ? O
   O106       1.0     0.664720     0.670821     0.670852    Uiso  ? O
   O107       1.0     0.167722     0.827933     0.335407    Uiso  ? O
   O108       1.0     0.330004     0.178137     0.832517    Uiso  ? O
   O109       1.0     0.166257     0.679488     0.832992    Uiso  ? O
   O110       1.0     0.322326     0.338528     0.327819    Uiso  ? O
   O111       1.0     0.836470     0.169859     0.678896    Uiso  ? O
   O112       1.0     0.674557     0.841820     0.168533    Uiso  ? O
