
#======================================================================
# CRYSTAL DATA
#----------------------------------------------------------------------
data_VESTA_phase_1

_chemical_name_common                  'MIL53-muc'
_cell_length_a                         14.936300
_cell_length_b                         15.708900
_cell_length_c                         6.727600
_cell_angle_alpha                      90.000000
_cell_angle_beta                       99.211601
_cell_angle_gamma                      90.000000
_cell_volume                           1558.159268
_space_group_name_H-M_alt              'P 1'
_space_group_IT_number                 1

loop_
_space_group_symop_operation_xyz
   'x, y, z'

loop_
   _atom_site_label
   _atom_site_occupancy
   _atom_site_fract_x
   _atom_site_fract_y
   _atom_site_fract_z
   _atom_site_adp_type
   _atom_site_U_iso_or_equiv
   _atom_site_type_symbol
   Al1        1.0     0.000000     0.999770     0.500000    Uiso  ? Al
   Al2        1.0     0.000000     0.999790     0.000000    Uiso  ? Al
   Al3        1.0     0.500000     0.499770     0.500000    Uiso  ? Al
   Al4        1.0     0.500000     0.499790     0.000000    Uiso  ? Al
   H1         1.0     0.380120     0.502480     0.707220    Uiso  ? H
   H2         1.0     0.299470     0.295310     0.329800    Uiso  ? H
   H3         1.0     0.807110     0.806810     0.874730    Uiso  ? H
   H4         1.0     0.700720     0.704360     0.670200    Uiso  ? H
   H5         1.0     0.192960     0.193080     0.125250    Uiso  ? H
   H6         1.0     0.619880     0.502480     0.292780    Uiso  ? H
   H7         1.0     0.700530     0.295310     0.670200    Uiso  ? H
   H8         1.0     0.192890     0.806810     0.125270    Uiso  ? H
   H9         1.0     0.299280     0.704360     0.329800    Uiso  ? H
   H10        1.0     0.807040     0.193080     0.874750    Uiso  ? H
   H11        1.0     0.880120     0.002480     0.707220    Uiso  ? H
   H12        1.0     0.799470     0.795310     0.329800    Uiso  ? H
   H13        1.0     0.307110     0.306810     0.874730    Uiso  ? H
   H14        1.0     0.200720     0.204360     0.670200    Uiso  ? H
   H15        1.0     0.692960     0.693080     0.125250    Uiso  ? H
   H16        1.0     0.119880     0.002480     0.292780    Uiso  ? H
   H17        1.0     0.200530     0.795310     0.670200    Uiso  ? H
   H18        1.0     0.692890     0.306810     0.125270    Uiso  ? H
   H19        1.0     0.799280     0.204360     0.329800    Uiso  ? H
   H20        1.0     0.307040     0.693080     0.874750    Uiso  ? H
   C1         1.0     0.388720     0.385920     0.210350    Uiso  ? C
   C2         1.0     0.320200     0.317080     0.189850    Uiso  ? C
   C3         1.0     0.216240     0.216890     0.989370    Uiso  ? C
   C4         1.0     0.611490     0.613730     0.789730    Uiso  ? C
   C5         1.0     0.679910     0.682670     0.810150    Uiso  ? C
   C6         1.0     0.783820     0.782940     0.010560    Uiso  ? C
   C7         1.0     0.611280     0.385920     0.789650    Uiso  ? C
   C8         1.0     0.679800     0.317080     0.810150    Uiso  ? C
   C9         1.0     0.783760     0.216890     0.010630    Uiso  ? C
   C10        1.0     0.388510     0.613730     0.210270    Uiso  ? C
   C11        1.0     0.320090     0.682670     0.189850    Uiso  ? C
   C12        1.0     0.216180     0.782940     0.989440    Uiso  ? C
   C13        1.0     0.888720     0.885920     0.210350    Uiso  ? C
   C14        1.0     0.820200     0.817080     0.189850    Uiso  ? C
   C15        1.0     0.716240     0.716890     0.989370    Uiso  ? C
   C16        1.0     0.111490     0.113730     0.789730    Uiso  ? C
   C17        1.0     0.179910     0.182670     0.810150    Uiso  ? C
   C18        1.0     0.283820     0.282940     0.010560    Uiso  ? C
   C19        1.0     0.111280     0.885920     0.789650    Uiso  ? C
   C20        1.0     0.179800     0.817080     0.810150    Uiso  ? C
   C21        1.0     0.283760     0.716890     0.010630    Uiso  ? C
   C22        1.0     0.888510     0.113730     0.210270    Uiso  ? C
   C23        1.0     0.820090     0.182670     0.189850    Uiso  ? C
   C24        1.0     0.716180     0.282940     0.989440    Uiso  ? C
   O1         1.0     0.085120     0.086350     0.948790    Uiso  ? O
   O2         1.0     0.414820     0.412950     0.389000    Uiso  ? O
   O3         1.0     0.915140     0.913260     0.051380    Uiso  ? O
   O4         1.0     0.585460     0.586630     0.611050    Uiso  ? O
   O5         1.0     0.054290     0.999910     0.269310    Uiso  ? O
   O6         1.0     0.914880     0.086350     0.051210    Uiso  ? O
   O7         1.0     0.585180     0.412950     0.611000    Uiso  ? O
   O8         1.0     0.084860     0.913260     0.948620    Uiso  ? O
   O9         1.0     0.414540     0.586630     0.388950    Uiso  ? O
   O10        1.0     0.945710     0.999910     0.730690    Uiso  ? O
   O11        1.0     0.585120     0.586350     0.948790    Uiso  ? O
   O12        1.0     0.914820     0.912950     0.389000    Uiso  ? O
   O13        1.0     0.415140     0.413260     0.051380    Uiso  ? O
   O14        1.0     0.085460     0.086630     0.611050    Uiso  ? O
   O15        1.0     0.554290     0.499910     0.269310    Uiso  ? O
   O16        1.0     0.414880     0.586350     0.051210    Uiso  ? O
   O17        1.0     0.085180     0.912950     0.611000    Uiso  ? O
   O18        1.0     0.584860     0.413260     0.948620    Uiso  ? O
   O19        1.0     0.914540     0.086630     0.388950    Uiso  ? O
   O20        1.0     0.445710     0.499910     0.730690    Uiso  ? O
