
#======================================================================
# CRYSTAL DATA
#----------------------------------------------------------------------
data_VESTA_phase_1

_chemical_name_common                  'MIL68-mes-opt'
_cell_length_a                         16.919855
_cell_length_b                         16.916582
_cell_length_c                         13.208319
_cell_angle_alpha                      90.000450
_cell_angle_beta                       90.003601
_cell_angle_gamma                      120.008469
_cell_volume                           3273.786579
_space_group_name_H-M_alt              'P 1'
_space_group_IT_number                 1

loop_
_space_group_symop_operation_xyz
   'x, y, z'

loop_
   _atom_site_label
   _atom_site_occupancy
   _atom_site_fract_x
   _atom_site_fract_y
   _atom_site_fract_z
   _atom_site_adp_type
   _atom_site_U_iso_or_equiv
   _atom_site_type_symbol
   Al1        1.0     0.498639     0.499525     0.999975    Uiso  ? Al
   Al2        1.0     0.495436     0.998342     0.999962    Uiso  ? Al
   Al3        1.0     0.996888     0.496790     0.999214    Uiso  ? Al
   Al4        1.0     0.500413     0.500811     0.249765    Uiso  ? Al
   Al5        1.0     0.494140     0.998638     0.249822    Uiso  ? Al
   Al6        1.0     0.996862     0.495407     0.249048    Uiso  ? Al
   Al7        1.0     0.498332     0.499213     0.499986    Uiso  ? Al
   Al8        1.0     0.495382     0.998692     0.500093    Uiso  ? Al
   Al9        1.0     0.997338     0.496710     0.499114    Uiso  ? Al
   Al10       1.0     0.497105     0.498204     0.749957    Uiso  ? Al
   Al11       1.0     0.496489     0.998095     0.750037    Uiso  ? Al
   Al12       1.0     0.997281     0.498592     0.749290    Uiso  ? Al
   H1         1.0     0.824895     0.563234     0.052861    Uiso  ? H
   H2         1.0     0.151963     0.403623     0.455399    Uiso  ? H
   H3         1.0     0.425171     0.258101     0.052030    Uiso  ? H
   H4         1.0     0.578395     0.742412     0.450476    Uiso  ? H
   H5         1.0     0.734460     0.171025     0.052884    Uiso  ? H
   H6         1.0     0.248714     0.842168     0.453797    Uiso  ? H
   H7         1.0     0.721844     0.575075     0.079118    Uiso  ? H
   H8         1.0     0.255059     0.392699     0.427040    Uiso  ? H
   H9         1.0     0.412901     0.143051     0.078344    Uiso  ? H
   H10        1.0     0.587562     0.855885     0.422815    Uiso  ? H
   H11        1.0     0.849790     0.273676     0.078626    Uiso  ? H
   H12        1.0     0.135512     0.738051     0.424942    Uiso  ? H
   H13        1.0     0.769443     0.532061     0.270650    Uiso  ? H
   H14        1.0     0.223952     0.460416     0.227898    Uiso  ? H
   H15        1.0     0.466259     0.237414     0.270917    Uiso  ? H
   H16        1.0     0.536851     0.763667     0.228889    Uiso  ? H
   H17        1.0     0.757564     0.227403     0.271142    Uiso  ? H
   H18        1.0     0.231358     0.771569     0.228252    Uiso  ? H
   H19        1.0     0.454736     0.573248     0.374064    Uiso  ? H
   H20        1.0     0.539911     0.424186     0.125581    Uiso  ? H
   H21        1.0     0.420000     0.881408     0.374352    Uiso  ? H
   H22        1.0     0.569845     0.115316     0.125702    Uiso  ? H
   H23        1.0     0.114325     0.538181     0.373205    Uiso  ? H
   H24        1.0     0.880223     0.454876     0.125065    Uiso  ? H
   H25        1.0     0.840643     0.585539     0.546529    Uiso  ? H
   H26        1.0     0.172151     0.433759     0.945502    Uiso  ? H
   H27        1.0     0.399800     0.250176     0.542775    Uiso  ? H
   H28        1.0     0.561461     0.737312     0.946505    Uiso  ? H
   H29        1.0     0.741820     0.154825     0.546320    Uiso  ? H
   H30        1.0     0.256830     0.825442     0.946339    Uiso  ? H
   H31        1.0     0.737797     0.596924     0.575062    Uiso  ? H
   H32        1.0     0.276196     0.423523     0.919971    Uiso  ? H
   H33        1.0     0.387010     0.135441     0.571657    Uiso  ? H
   H34        1.0     0.570753     0.851162     0.920401    Uiso  ? H
   H35        1.0     0.856849     0.256853     0.574056    Uiso  ? H
   H36        1.0     0.142940     0.721066     0.920011    Uiso  ? H
   H37        1.0     0.771163     0.535863     0.770909    Uiso  ? H
   H38        1.0     0.227907     0.466973     0.728676    Uiso  ? H
   H39        1.0     0.461096     0.235310     0.771466    Uiso  ? H
   H40        1.0     0.533195     0.761860     0.728853    Uiso  ? H
   H41        1.0     0.759487     0.224421     0.770988    Uiso  ? H
   H42        1.0     0.233165     0.769614     0.728847    Uiso  ? H
   H43        1.0     0.457101     0.574540     0.874078    Uiso  ? H
   H44        1.0     0.538877     0.422862     0.625703    Uiso  ? H
   H45        1.0     0.420673     0.881548     0.874160    Uiso  ? H
   H46        1.0     0.570552     0.115787     0.625923    Uiso  ? H
   H47        1.0     0.113612     0.539007     0.873431    Uiso  ? H
   H48        1.0     0.879701     0.453852     0.624649    Uiso  ? H
   C1         1.0     0.550784     0.894708     0.107285    Uiso  ? C
   C2         1.0     0.436658     0.101639     0.393181    Uiso  ? C
   C3         1.0     0.100238     0.655850     0.106415    Uiso  ? C
   C4         1.0     0.892999     0.335423     0.392980    Uiso  ? C
   C5         1.0     0.339848     0.444503     0.106936    Uiso  ? C
   C6         1.0     0.659903     0.556323     0.393712    Uiso  ? C
   C7         1.0     0.524745     0.653653     0.136665    Uiso  ? C
   C8         1.0     0.472132     0.345581     0.362243    Uiso  ? C
   C9         1.0     0.341368     0.870048     0.136447    Uiso  ? C
   C10        1.0     0.648794     0.126448     0.362752    Uiso  ? C
   C11        1.0     0.125399     0.471322     0.135644    Uiso  ? C
   C12        1.0     0.869808     0.523010     0.361965    Uiso  ? C
   C13        1.0     0.536383     0.744078     0.150279    Uiso  ? C
   C14        1.0     0.458067     0.254177     0.348351    Uiso  ? C
   C15        1.0     0.250847     0.791425     0.149786    Uiso  ? C
   C16        1.0     0.740142     0.203883     0.348974    Uiso  ? C
   C17        1.0     0.204396     0.460125     0.149316    Uiso  ? C
   C18        1.0     0.792526     0.537126     0.348549    Uiso  ? C
   C19        1.0     0.550044     0.808143     0.075404    Uiso  ? C
   C20        1.0     0.431788     0.186004     0.421668    Uiso  ? C
   C21        1.0     0.186559     0.741965     0.074768    Uiso  ? C
   C22        1.0     0.807683     0.247429     0.422687    Uiso  ? C
   C23        1.0     0.254310     0.445566     0.074653    Uiso  ? C
   C24        1.0     0.748234     0.559559     0.422924    Uiso  ? C
   C25        1.0     0.574880     0.801697     0.476065    Uiso  ? C
   C26        1.0     0.425511     0.197421     0.025381    Uiso  ? C
   C27        1.0     0.190146     0.778233     0.478252    Uiso  ? C
   C28        1.0     0.795679     0.231196     0.025729    Uiso  ? C
   C29        1.0     0.215876     0.408978     0.479818    Uiso  ? C
   C30        1.0     0.764502     0.563960     0.025979    Uiso  ? C
   C31        1.0     0.552491     0.894301     0.606058    Uiso  ? C
   C32        1.0     0.440045     0.101898     0.892819    Uiso  ? C
   C33        1.0     0.100125     0.658863     0.605596    Uiso  ? C
   C34        1.0     0.892775     0.338300     0.891925    Uiso  ? C
   C35        1.0     0.336446     0.440490     0.606488    Uiso  ? C
   C36        1.0     0.657100     0.553918     0.892609    Uiso  ? C
   C37        1.0     0.523898     0.652637     0.637097    Uiso  ? C
   C38        1.0     0.471978     0.345066     0.863436    Uiso  ? C
   C39        1.0     0.341753     0.870923     0.637381    Uiso  ? C
   C40        1.0     0.649552     0.126441     0.863267    Uiso  ? C
   C41        1.0     0.125366     0.471942     0.636942    Uiso  ? C
   C42        1.0     0.868986     0.523167     0.862605    Uiso  ? C
   C43        1.0     0.536689     0.743513     0.650660    Uiso  ? C
   C44        1.0     0.459127     0.254148     0.849872    Uiso  ? C
   C45        1.0     0.250736     0.793068     0.651013    Uiso  ? C
   C46        1.0     0.740323     0.204716     0.849560    Uiso  ? C
   C47        1.0     0.203544     0.459285     0.651036    Uiso  ? C
   C48        1.0     0.790937     0.535981     0.849363    Uiso  ? C
   C49        1.0     0.555680     0.809311     0.576012    Uiso  ? C
   C50        1.0     0.440833     0.188512     0.924394    Uiso  ? C
   C51        1.0     0.184017     0.748344     0.576743    Uiso  ? C
   C52        1.0     0.805479     0.253404     0.924091    Uiso  ? C
   C53        1.0     0.247017     0.434997     0.577581    Uiso  ? C
   C54        1.0     0.742226     0.551876     0.924365    Uiso  ? C
   C55        1.0     0.561227     0.797919     0.973545    Uiso  ? C
   C56        1.0     0.404643     0.191191     0.518836    Uiso  ? C
   C57        1.0     0.196385     0.764346     0.973191    Uiso  ? C
   C58        1.0     0.801382     0.217668     0.521273    Uiso  ? C
   C59        1.0     0.232763     0.433729     0.972840    Uiso  ? C
   C60        1.0     0.777564     0.581886     0.521782    Uiso  ? C
   O1         1.0     0.538646     0.480926     0.124961    Uiso  ? O
   O2         1.0     0.461691     0.519709     0.374333    Uiso  ? O
   O3         1.0     0.513790     0.056707     0.125040    Uiso  ? O
   O4         1.0     0.474729     0.941075     0.374586    Uiso  ? O
   O5         1.0     0.938530     0.456814     0.124335    Uiso  ? O
   O6         1.0     0.054810     0.533554     0.373616    Uiso  ? O
   O7         1.0     0.538837     0.621173     0.218738    Uiso  ? O
   O8         1.0     0.462114     0.379997     0.279510    Uiso  ? O
   O9         1.0     0.373889     0.916317     0.218680    Uiso  ? O
   O10        1.0     0.614583     0.081778     0.280051    Uiso  ? O
   O11        1.0     0.078778     0.457025     0.217707    Uiso  ? O
   O12        1.0     0.914521     0.533671     0.279250    Uiso  ? O
   O13        1.0     0.500575     0.610225     0.052253    Uiso  ? O
   O14        1.0     0.494286     0.387348     0.447545    Uiso  ? O
   O15        1.0     0.384783     0.889415     0.052061    Uiso  ? O
   O16        1.0     0.606738     0.106712     0.447912    Uiso  ? O
   O17        1.0     0.105910     0.495213     0.051202    Uiso  ? O
   O18        1.0     0.889351     0.500151     0.446921    Uiso  ? O
   O19        1.0     0.376601     0.422103     0.036620    Uiso  ? O
   O20        1.0     0.621673     0.573980     0.466478    Uiso  ? O
   O21        1.0     0.572570     0.953431     0.036615    Uiso  ? O
   O22        1.0     0.419812     0.046402     0.466446    Uiso  ? O
   O23        1.0     0.041487     0.618883     0.035806    Uiso  ? O
   O24        1.0     0.949478     0.373403     0.465387    Uiso  ? O
   O25        1.0     0.627150     0.532805     0.305209    Uiso  ? O
   O26        1.0     0.372429     0.468917     0.195347    Uiso  ? O
   O27        1.0     0.460753     0.092622     0.304951    Uiso  ? O
   O28        1.0     0.526651     0.903135     0.195761    Uiso  ? O
   O29        1.0     0.901926     0.368204     0.304570    Uiso  ? O
   O30        1.0     0.092144     0.623102     0.194737    Uiso  ? O
   O31        1.0     0.534993     0.478177     0.625380    Uiso  ? O
   O32        1.0     0.458718     0.517990     0.874812    Uiso  ? O
   O33        1.0     0.515884     0.056085     0.625556    Uiso  ? O
   O34        1.0     0.476935     0.939984     0.874810    Uiso  ? O
   O35        1.0     0.939823     0.459900     0.624598    Uiso  ? O
   O36        1.0     0.055262     0.536974     0.874131    Uiso  ? O
   O37        1.0     0.535054     0.618719     0.719708    Uiso  ? O
   O38        1.0     0.458486     0.377772     0.781239    Uiso  ? O
   O39        1.0     0.375833     0.915720     0.720068    Uiso  ? O
   O40        1.0     0.616854     0.080119     0.781095    Uiso  ? O
   O41        1.0     0.080542     0.461310     0.719507    Uiso  ? O
   O42        1.0     0.915122     0.536696     0.780297    Uiso  ? O
   O43        1.0     0.501549     0.610282     0.552026    Uiso  ? O
   O44        1.0     0.496360     0.388394     0.947831    Uiso  ? O
   O45        1.0     0.383868     0.890737     0.552210    Uiso  ? O
   O46        1.0     0.606262     0.107301     0.947735    Uiso  ? O
   O47        1.0     0.105341     0.493549     0.551526    Uiso  ? O
   O48        1.0     0.888059     0.498722     0.946924    Uiso  ? O
   O49        1.0     0.375042     0.423592     0.533445    Uiso  ? O
   O50        1.0     0.620744     0.576484     0.963172    Uiso  ? O
   O51        1.0     0.570716     0.950870     0.533825    Uiso  ? O
   O52        1.0     0.418101     0.043175     0.963505    Uiso  ? O
   O53        1.0     0.044869     0.619917     0.532468    Uiso  ? O
   O54        1.0     0.951901     0.374676     0.962313    Uiso  ? O
   O55        1.0     0.624448     0.529896     0.804149    Uiso  ? O
   O56        1.0     0.369501     0.464930     0.694698    Uiso  ? O
   O57        1.0     0.464471     0.093594     0.804495    Uiso  ? O
   O58        1.0     0.528660     0.903046     0.694569    Uiso  ? O
   O59        1.0     0.901416     0.370799     0.803394    Uiso  ? O
   O60        1.0     0.091304     0.626025     0.693976    Uiso  ? O
