
#======================================================================
# CRYSTAL DATA
#----------------------------------------------------------------------
data_VESTA_phase_1

_chemical_name_common                  'MIL68-std-opt'
_cell_length_a                         21.014853
_cell_length_b                         35.882824
_cell_length_c                         6.659938
_cell_angle_alpha                      89.935860
_cell_angle_beta                       89.970985
_cell_angle_gamma                      89.996857
_cell_volume                           5022.070550
_space_group_name_H-M_alt              'P 1'
_space_group_IT_number                 1

loop_
_space_group_symop_operation_xyz
   'x, y, z'

loop_
   _atom_site_label
   _atom_site_occupancy
   _atom_site_fract_x
   _atom_site_fract_y
   _atom_site_fract_z
   _atom_site_adp_type
   _atom_site_U_iso_or_equiv
   _atom_site_type_symbol
   Al1        1.0     0.974830     0.003698     0.475888    Uiso  ? Al
   Al2        1.0     0.471645     0.500837     0.506971    Uiso  ? Al
   Al3        1.0     0.974627     0.003237     0.975786    Uiso  ? Al
   Al4        1.0     0.473033     0.501159     0.006466    Uiso  ? Al
   Al5        1.0     0.278402     0.235407     0.503561    Uiso  ? Al
   Al6        1.0     0.762439     0.739610     0.000806    Uiso  ? Al
   Al7        1.0     0.778124     0.268592     0.017173    Uiso  ? Al
   Al8        1.0     0.262146     0.763462     0.475062    Uiso  ? Al
   Al9        1.0     0.761182     0.740178     0.500038    Uiso  ? Al
   Al10       1.0     0.278905     0.234865     0.004668    Uiso  ? Al
   Al11       1.0     0.264093     0.764587     0.974483    Uiso  ? Al
   Al12       1.0     0.779655     0.269394     0.518157    Uiso  ? Al
   H1         1.0     0.469412     0.245619     0.437730    Uiso  ? H
   H2         1.0     0.172460     0.142344     0.060994    Uiso  ? H
   H3         1.0     0.094585     0.089456     0.045597    Uiso  ? H
   H4         1.0     0.952871     0.724786     0.426772    Uiso  ? H
   H5         1.0     0.692964     0.633608     0.068542    Uiso  ? H
   H6         1.0     0.622761     0.576804     0.071943    Uiso  ? H
   H7         1.0     0.576691     0.766762     0.922515    Uiso  ? H
   H8         1.0     0.807287     0.852553     0.565265    Uiso  ? H
   H9         1.0     0.849339     0.918195     0.556780    Uiso  ? H
   H10        1.0     0.084127     0.247944     0.940355    Uiso  ? H
   H11        1.0     0.313677     0.346089     0.567382    Uiso  ? H
   H12        1.0     0.350488     0.412940     0.568918    Uiso  ? H
   H13        1.0     0.587850     0.238348     0.083189    Uiso  ? H
   H14        1.0     0.846307     0.165913     0.439869    Uiso  ? H
   H15        1.0     0.882429     0.099011     0.425794    Uiso  ? H
   H16        1.0     0.072616     0.754370     0.050910    Uiso  ? H
   H17        1.0     0.306767     0.651817     0.415149    Uiso  ? H
   H18        1.0     0.348022     0.585868     0.427102    Uiso  ? H
   H19        1.0     0.449643     0.761342     0.552638    Uiso  ? H
   H20        1.0     0.198026     0.873043     0.908825    Uiso  ? H
   H21        1.0     0.127789     0.929663     0.908110    Uiso  ? H
   H22        1.0     0.972791     0.277277     0.580912    Uiso  ? H
   H23        1.0     0.702830     0.374173     0.948509    Uiso  ? H
   H24        1.0     0.625440     0.427512     0.944989    Uiso  ? H
   H25        1.0     0.568731     0.752757     0.562183    Uiso  ? H
   H26        1.0     0.837270     0.843156     0.929471    Uiso  ? H
   H27        1.0     0.879833     0.908661     0.921330    Uiso  ? H
   H28        1.0     0.090270     0.263992     0.578783    Uiso  ? H
   H29        1.0     0.340964     0.341547     0.928985    Uiso  ? H
   H30        1.0     0.376600     0.408699     0.930016    Uiso  ? H
   H31        1.0     0.469944     0.226467     0.074077    Uiso  ? H
   H32        1.0     0.211195     0.129198     0.431834    Uiso  ? H
   H33        1.0     0.133570     0.076050     0.416486    Uiso  ? H
   H34        1.0     0.954087     0.744794     0.062156    Uiso  ? H
   H35        1.0     0.661231     0.645924     0.434997    Uiso  ? H
   H36        1.0     0.590644     0.589419     0.438696    Uiso  ? H
   H37        1.0     0.457698     0.775702     0.913261    Uiso  ? H
   H38        1.0     0.163975     0.858608     0.539990    Uiso  ? H
   H39        1.0     0.093087     0.914906     0.538841    Uiso  ? H
   H40        1.0     0.966418     0.260740     0.943036    Uiso  ? H
   H41        1.0     0.674738     0.361499     0.583537    Uiso  ? H
   H42        1.0     0.597572     0.414883     0.580172    Uiso  ? H
   H43        1.0     0.587454     0.257122     0.446347    Uiso  ? H
   H44        1.0     0.817206     0.155766     0.075769    Uiso  ? H
   H45        1.0     0.853098     0.088731     0.061446    Uiso  ? H
   H46        1.0     0.071268     0.734402     0.415378    Uiso  ? H
   H47        1.0     0.333780     0.661459     0.052001    Uiso  ? H
   H48        1.0     0.375206     0.595559     0.063758    Uiso  ? H
   H49        1.0     0.738217     0.786652     0.752788    Uiso  ? H
   H50        1.0     0.219341     0.269588     0.756606    Uiso  ? H
   H51        1.0     0.304178     0.188580     0.256660    Uiso  ? H
   H52        1.0     0.819582     0.704508     0.254241    Uiso  ? H
   H53        1.0     0.286868     0.810794     0.719487    Uiso  ? H
   H54        1.0     0.801764     0.315960     0.771157    Uiso  ? H
   H55        1.0     0.721493     0.233524     0.272399    Uiso  ? H
   H56        1.0     0.206053     0.728240     0.219448    Uiso  ? H
   H57        1.0     0.498433     0.455117     0.757358    Uiso  ? H
   H58        1.0     0.001130     0.957526     0.724137    Uiso  ? H
   H59        1.0     0.497639     0.546976     0.258145    Uiso  ? H
   H60        1.0     0.998520     0.049950     0.223971    Uiso  ? H
   C1         1.0     0.496055     0.243728     0.577611    Uiso  ? C
   C2         1.0     0.164086     0.127324     0.921438    Uiso  ? C
   C3         1.0     0.120832     0.098126     0.912539    Uiso  ? C
   C4         1.0     0.979689     0.731040     0.562504    Uiso  ? C
   C5         1.0     0.670578     0.623460     0.931546    Uiso  ? C
   C6         1.0     0.631595     0.592139     0.933423    Uiso  ? C
   C7         1.0     0.548223     0.765807     0.059170    Uiso  ? C
   C8         1.0     0.822929     0.865202     0.424945    Uiso  ? C
   C9         1.0     0.846065     0.901517     0.420505    Uiso  ? C
   C10        1.0     0.059367     0.254636     0.079482    Uiso  ? C
   C11        1.0     0.327431     0.360197     0.429086    Uiso  ? C
   C12        1.0     0.347436     0.397103     0.429832    Uiso  ? C
   C13        1.0     0.561518     0.239687     0.942511    Uiso  ? C
   C14        1.0     0.847614     0.148588     0.574219    Uiso  ? C
   C15        1.0     0.867285     0.111689     0.566401    Uiso  ? C
   C16        1.0     0.045902     0.747513     0.915762    Uiso  ? C
   C17        1.0     0.321548     0.639072     0.556167    Uiso  ? C
   C18        1.0     0.344128     0.602662     0.562757    Uiso  ? C
   C19        1.0     0.478229     0.762795     0.416388    Uiso  ? C
   C20        1.0     0.175174     0.882648     0.046190    Uiso  ? C
   C21        1.0     0.136102     0.913916     0.045585    Uiso  ? C
   C22        1.0     0.997748     0.270908     0.441684    Uiso  ? C
   C23        1.0     0.679754     0.383481     0.086043    Uiso  ? C
   C24        1.0     0.636709     0.412922     0.083986    Uiso  ? C
   C25        1.0     0.543839     0.757991     0.421527    Uiso  ? C
   C26        1.0     0.839595     0.859990     0.065309    Uiso  ? C
   C27        1.0     0.863009     0.896173     0.060716    Uiso  ? C
   C28        1.0     0.062736     0.263559     0.440298    Uiso  ? C
   C29        1.0     0.342559     0.357674     0.067316    Uiso  ? C
   C30        1.0     0.362090     0.394680     0.067814    Uiso  ? C
   C31        1.0     0.496292     0.233083     0.937700    Uiso  ? C
   C32        1.0     0.185735     0.120030     0.565571    Uiso  ? C
   C33        1.0     0.142521     0.090708     0.556881    Uiso  ? C
   C34        1.0     0.980433     0.742147     0.922008    Uiso  ? C
   C35        1.0     0.652821     0.630323     0.572907    Uiso  ? C
   C36        1.0     0.613777     0.599097     0.575253    Uiso  ? C
   C37        1.0     0.482638     0.770764     0.054139    Uiso  ? C
   C38        1.0     0.156174     0.874637     0.403182    Uiso  ? C
   C39        1.0     0.116868     0.905764     0.402234    Uiso  ? C
   C40        1.0     0.994308     0.261748     0.080774    Uiso  ? C
   C41        1.0     0.664190     0.376485     0.445239    Uiso  ? C
   C42        1.0     0.621306     0.405952     0.443121    Uiso  ? C
   C43        1.0     0.561290     0.250123     0.582510    Uiso  ? C
   C44        1.0     0.831279     0.142916     0.934401    Uiso  ? C
   C45        1.0     0.850872     0.105904     0.926544    Uiso  ? C
   C46        1.0     0.045159     0.736445     0.556239    Uiso  ? C
   C47        1.0     0.336663     0.644449     0.916951    Uiso  ? C
   C48        1.0     0.359310     0.608101     0.923483    Uiso  ? C
   C49        1.0     0.463143     0.235211     0.755232    Uiso  ? C
   C50        1.0     0.238315     0.172194     0.755257    Uiso  ? C
   C51        1.0     0.392558     0.230270     0.750461    Uiso  ? C
   C52        1.0     0.196358     0.138680     0.747501    Uiso  ? C
   C53        1.0     0.059756     0.050058     0.721320    Uiso  ? C
   C54        1.0     0.109286     0.079854     0.730013    Uiso  ? C
   C55        1.0     0.946932     0.734011     0.745295    Uiso  ? C
   C56        1.0     0.718859     0.677950     0.749654    Uiso  ? C
   C57        1.0     0.876164     0.730678     0.750525    Uiso  ? C
   C58        1.0     0.680868     0.642862     0.751483    Uiso  ? C
   C59        1.0     0.556361     0.548342     0.759170    Uiso  ? C
   C60        1.0     0.602371     0.580040     0.755666    Uiso  ? C
   C61        1.0     0.579016     0.759198     0.242710    Uiso  ? C
   C62        1.0     0.796747     0.804868     0.251597    Uiso  ? C
   C63        1.0     0.649109     0.752892     0.246444    Uiso  ? C
   C64        1.0     0.819975     0.844172     0.247760    Uiso  ? C
   C65        1.0     0.898589     0.954168     0.234878    Uiso  ? C
   C66        1.0     0.866816     0.917005     0.238487    Uiso  ? C
   C67        1.0     0.093986     0.255323     0.259416    Uiso  ? C
   C68        1.0     0.307604     0.300096     0.248499    Uiso  ? C
   C69        1.0     0.163826     0.247352     0.259176    Uiso  ? C
   C70        1.0     0.325912     0.340185     0.248246    Uiso  ? C
   C71        1.0     0.395747     0.451906     0.252444    Uiso  ? C
   C72        1.0     0.365628     0.414312     0.249431    Uiso  ? C
   C73        1.0     0.594441     0.248263     0.765038    Uiso  ? C
   C74        1.0     0.810932     0.204416     0.764477    Uiso  ? C
   C75        1.0     0.664465     0.255515     0.769241    Uiso  ? C
   C76        1.0     0.830205     0.164466     0.758577    Uiso  ? C
   C77        1.0     0.898642     0.052439     0.735908    Uiso  ? C
   C78        1.0     0.869642     0.090309     0.742692    Uiso  ? C
   C79        1.0     0.078599     0.744824     0.732695    Uiso  ? C
   C80        1.0     0.296269     0.699642     0.727510    Uiso  ? C
   C81        1.0     0.148782     0.751212     0.726767    Uiso  ? C
   C82        1.0     0.318331     0.660201     0.733000    Uiso  ? C
   C83        1.0     0.395409     0.550021     0.750700    Uiso  ? C
   C84        1.0     0.363748     0.587197     0.746215    Uiso  ? C
   C85        1.0     0.447331     0.768982     0.232632    Uiso  ? C
   C86        1.0     0.222581     0.827381     0.224054    Uiso  ? C
   C87        1.0     0.376561     0.771704     0.227710    Uiso  ? C
   C88        1.0     0.184898     0.862631     0.224618    Uiso  ? C
   C89        1.0     0.059465     0.956793     0.220331    Uiso  ? C
   C90        1.0     0.105974     0.925340     0.223170    Uiso  ? C
   C91        1.0     0.963093     0.269839     0.261902    Uiso  ? C
   C92        1.0     0.735697     0.331497     0.268182    Uiso  ? C
   C93        1.0     0.892581     0.275174     0.263313    Uiso  ? C
   C94        1.0     0.693395     0.364906     0.266419    Uiso  ? C
   C95        1.0     0.557713     0.454268     0.260216    Uiso  ? C
   C96        1.0     0.606815     0.424151     0.262367    Uiso  ? C
   O1         1.0     0.365687     0.231918     0.579429    Uiso  ? O
   O2         1.0     0.045653     0.036633     0.549818    Uiso  ? O
   O3         1.0     0.258710     0.185106     0.588754    Uiso  ? O
   O4         1.0     0.847440     0.728434     0.582395    Uiso  ? O
   O5         1.0     0.533885     0.537876     0.590443    Uiso  ? O
   O6         1.0     0.729999     0.692584     0.579139    Uiso  ? O
   O7         1.0     0.676680     0.749005     0.077666    Uiso  ? O
   O8         1.0     0.918303     0.965524     0.064676    Uiso  ? O
   O9         1.0     0.786471     0.789495     0.082239    Uiso  ? O
   O10        1.0     0.192139     0.246803     0.089688    Uiso  ? O
   O11        1.0     0.407677     0.467339     0.084446    Uiso  ? O
   O12        1.0     0.305997     0.283550     0.079674    Uiso  ? O
   O13        1.0     0.690488     0.259288     0.941030    Uiso  ? O
   O14        1.0     0.905822     0.035036     0.901000    Uiso  ? O
   O15        1.0     0.799198     0.218894     0.934882    Uiso  ? O
   O16        1.0     0.177056     0.753745     0.895375    Uiso  ? O
   O17        1.0     0.413429     0.537838     0.921035    Uiso  ? O
   O18        1.0     0.289815     0.715963     0.895773    Uiso  ? O
   O19        1.0     0.347906     0.771440     0.396047    Uiso  ? O
   O20        1.0     0.035385     0.966178     0.388795    Uiso  ? O
   O21        1.0     0.235913     0.813071     0.394067    Uiso  ? O
   O22        1.0     0.865183     0.278999     0.432691    Uiso  ? O
   O23        1.0     0.539293     0.466527     0.430243    Uiso  ? O
   O24        1.0     0.749949     0.317989     0.439552    Uiso  ? O
   O25        1.0     0.676401     0.751953     0.417002    Uiso  ? O
   O26        1.0     0.906829     0.970958     0.401049    Uiso  ? O
   O27        1.0     0.788858     0.789721     0.423086    Uiso  ? O
   O28        1.0     0.189941     0.241992     0.429568    Uiso  ? O
   O29        1.0     0.410892     0.464880     0.423639    Uiso  ? O
   O30        1.0     0.294646     0.285227     0.417288    Uiso  ? O
   O31        1.0     0.364090     0.225249     0.917212    Uiso  ? O
   O32        1.0     0.034042     0.041069     0.888199    Uiso  ? O
   O33        1.0     0.249340     0.186016     0.928039    Uiso  ? O
   O34        1.0     0.849666     0.731041     0.922796    Uiso  ? O
   O35        1.0     0.541492     0.534991     0.930473    Uiso  ? O
   O36        1.0     0.736648     0.691008     0.918203    Uiso  ? O
   O37        1.0     0.349704     0.773575     0.056588    Uiso  ? O
   O38        1.0     0.045753     0.970920     0.050031    Uiso  ? O
   O39        1.0     0.237426     0.813908     0.053252    Uiso  ? O
   O40        1.0     0.864654     0.274887     0.093834    Uiso  ? O
   O41        1.0     0.536926     0.464626     0.089152    Uiso  ? O
   O42        1.0     0.753383     0.318436     0.099178    Uiso  ? O
   O43        1.0     0.692995     0.257182     0.600472    Uiso  ? O
   O44        1.0     0.917698     0.041000     0.565135    Uiso  ? O
   O45        1.0     0.807227     0.221139     0.596345    Uiso  ? O
   O46        1.0     0.174948     0.753515     0.554377    Uiso  ? O
   O47        1.0     0.405301     0.533997     0.583220    Uiso  ? O
   O48        1.0     0.285236     0.714164     0.556508    Uiso  ? O
   O49        1.0     0.976476     0.026240     0.225460    Uiso  ? O
   O50        1.0     0.474692     0.523562     0.256818    Uiso  ? O
   O51        1.0     0.977313     0.980640     0.725269    Uiso  ? O
   O52        1.0     0.474683     0.478261     0.757270    Uiso  ? O
   O53        1.0     0.298721     0.215379     0.254602    Uiso  ? O
   O54        1.0     0.782598     0.720597     0.251553    Uiso  ? O
   O55        1.0     0.743782     0.759877     0.750980    Uiso  ? O
   O56        1.0     0.256528     0.253673     0.754848    Uiso  ? O
   O57        1.0     0.757837     0.250082     0.268993    Uiso  ? O
   O58        1.0     0.241869     0.745178     0.223518    Uiso  ? O
   O59        1.0     0.281880     0.783974     0.723085    Uiso  ? O
   O60        1.0     0.797799     0.289068     0.768575    Uiso  ? O
