
#======================================================================
# CRYSTAL DATA
#----------------------------------------------------------------------
data_VESTA_phase_1

_chemical_name_common                  'MIL91-Ti'
_cell_length_a                         19.414600
_cell_length_b                         7.071600
_cell_length_c                         11.483400
_cell_angle_alpha                      90.000000
_cell_angle_beta                       92.779999
_cell_angle_gamma                      90.000000
_cell_volume                           1574.726865
_space_group_name_H-M_alt              'P 1'
_space_group_IT_number                 1

loop_
_space_group_symop_operation_xyz
   'x, y, z'

loop_
   _atom_site_label
   _atom_site_occupancy
   _atom_site_fract_x
   _atom_site_fract_y
   _atom_site_fract_z
   _atom_site_adp_type
   _atom_site_U_iso_or_equiv
   _atom_site_type_symbol
   Ti1        1.0     0.248600     0.284900     0.492200    Uiso  ? Ti
   Ti2        1.0     0.740800     0.216300     0.492300    Uiso  ? Ti
   Ti3        1.0     0.729800     0.715000     0.494000    Uiso  ? Ti
   Ti4        1.0     0.234700     0.778800     0.494100    Uiso  ? Ti
   P1         1.0     0.328000     0.010700     0.688400    Uiso  ? P
   P2         1.0     0.320100     0.002100     0.300900    Uiso  ? P
   P3         1.0     0.823900     0.505000     0.684400    Uiso  ? P
   P4         1.0     0.815300     0.494300     0.301100    Uiso  ? P
   P5         1.0     0.650200     0.984100     0.296400    Uiso  ? P
   P6         1.0     0.658700     0.993300     0.689000    Uiso  ? P
   P7         1.0     0.152900     0.491400     0.300300    Uiso  ? P
   P8         1.0     0.160800     0.498500     0.683800    Uiso  ? P
   H1         1.0     0.415000     0.189200     0.468000    Uiso  ? H
   H2         1.0     0.478200     0.280600     0.377600    Uiso  ? H
   H3         1.0     0.420500     0.855800     0.222600    Uiso  ? H
   H4         1.0     0.274100     0.876100     0.856400    Uiso  ? H
   H5         1.0     0.328600     0.108300     0.005100    Uiso  ? H
   H6         1.0     0.349100     0.273800     0.895500    Uiso  ? H
   H7         1.0     0.147100     0.074900     0.903200    Uiso  ? H
   H8         1.0     0.910900     0.684100     0.472600    Uiso  ? H
   H9         1.0     0.971100     0.784900     0.380300    Uiso  ? H
   H10        1.0     0.917600     0.367100     0.217600    Uiso  ? H
   H11        1.0     0.712000     0.451800     0.752200    Uiso  ? H
   H12        1.0     0.773700     0.366300     0.856600    Uiso  ? H
   H13        1.0     0.825700     0.597100     0.001900    Uiso  ? H
   H14        1.0     0.846400     0.762100     0.892200    Uiso  ? H
   H15        1.0     0.643600     0.569500     0.900600    Uiso  ? H
   H16        1.0     0.573200     0.160700     0.503100    Uiso  ? H
   H17        1.0     0.517400     0.295600     0.585800    Uiso  ? H
   H18        1.0     0.553300     0.886300     0.772000    Uiso  ? H
   H19        1.0     0.070000     0.665400     0.498600    Uiso  ? H
   H20        1.0     0.014800     0.792700     0.587000    Uiso  ? H
   H21        1.0     0.056700     0.373000     0.762300    Uiso  ? H
   H22        1.0     0.564700     0.801600     0.517900    Uiso  ? H
   H23        1.0     0.501900     0.709100     0.608600    Uiso  ? H
   H24        1.0     0.556500     0.133900     0.765700    Uiso  ? H
   H25        1.0     0.765300     0.023900     0.239500    Uiso  ? H
   H26        1.0     0.707800     0.122100     0.132700    Uiso  ? H
   H27        1.0     0.651100     0.889100     0.984700    Uiso  ? H
   H28        1.0     0.631100     0.723400     0.094200    Uiso  ? H
   H29        1.0     0.833600     0.917800     0.085100    Uiso  ? H
   H30        1.0     0.065300     0.307300     0.507000    Uiso  ? H
   H31        1.0     0.005600     0.204400     0.599400    Uiso  ? H
   H32        1.0     0.056900     0.620900     0.764000    Uiso  ? H
   H33        1.0     0.265100     0.545000     0.236700    Uiso  ? H
   H34        1.0     0.205200     0.630200     0.129300    Uiso  ? H
   H35        1.0     0.153400     0.396300     0.985500    Uiso  ? H
   H36        1.0     0.133200     0.231300     0.095600    Uiso  ? H
   H37        1.0     0.335300     0.429300     0.088400    Uiso  ? H
   H38        1.0     0.406300     0.829200     0.483300    Uiso  ? H
   H39        1.0     0.462000     0.694300     0.400700    Uiso  ? H
   H40        1.0     0.425500     0.103100     0.214600    Uiso  ? H
   H41        1.0     0.214500     0.970200     0.751500    Uiso  ? H
   H42        1.0     0.906200     0.324200     0.482100    Uiso  ? H
   H43        1.0     0.961100     0.196900     0.393300    Uiso  ? H
   H44        1.0     0.918600     0.615200     0.218000    Uiso  ? H
   H45        1.0     0.514900     0.976300     0.327100    Uiso  ? H
   H46        1.0     0.208900     0.991700     0.010500    Uiso  ? H
   H47        1.0     0.012000     0.483800     0.326200    Uiso  ? H
   H48        1.0     0.705000     0.482300     0.007300    Uiso  ? H
   H49        1.0     0.463800     0.013100     0.658300    Uiso  ? H
   H50        1.0     0.772000     0.004000     0.978500    Uiso  ? H
   H51        1.0     0.964000     0.505600     0.654300    Uiso  ? H
   H52        1.0     0.274000     0.514300     0.981000    Uiso  ? H
   H53        1.0     0.251500     0.223400     0.160700    Uiso  ? H
   H54        1.0     0.750000     0.710200     0.157400    Uiso  ? H
   H55        1.0     0.229500     0.284800     0.831000    Uiso  ? H
   H56        1.0     0.727500     0.774000     0.828200    Uiso  ? H
   C1         1.0     0.466700     0.167300     0.437600    Uiso  ? C
   C2         1.0     0.309700     0.228500     0.953600    Uiso  ? C
   C3         1.0     0.191800     0.113800     0.958800    Uiso  ? C
   C4         1.0     0.290600     0.391400     0.032400    Uiso  ? C
   C5         1.0     0.962200     0.667900     0.439000    Uiso  ? C
   C6         1.0     0.806900     0.717700     0.950600    Uiso  ? C
   C7         1.0     0.688700     0.605700     0.956300    Uiso  ? C
   C8         1.0     0.521400     0.166300     0.535500    Uiso  ? C
   C9         1.0     0.018800     0.666667     0.533900    Uiso  ? C
   C10        1.0     0.513000     0.822800     0.548700    Uiso  ? C
   C11        1.0     0.670300     0.768600     0.035600    Uiso  ? C
   C12        1.0     0.788500     0.880800     0.029700    Uiso  ? C
   C13        1.0     0.014100     0.322000     0.541000    Uiso  ? C
   C14        1.0     0.172500     0.276600     0.037200    Uiso  ? C
   C15        1.0     0.458200     0.823500     0.451100    Uiso  ? C
   C16        1.0     0.957200     0.323000     0.446500    Uiso  ? C
   C17        1.0     0.412800     0.985800     0.271200    Uiso  ? C
   C18        1.0     0.262700     0.998800     0.801300    Uiso  ? C
   C19        1.0     0.908400     0.491300     0.270900    Uiso  ? C
   C20        1.0     0.760300     0.486100     0.800100    Uiso  ? C
   C21        1.0     0.565700     0.005300     0.716500    Uiso  ? C
   C22        1.0     0.717800     0.998100     0.187400    Uiso  ? C
   C23        1.0     0.067000     0.497800     0.710300    Uiso  ? C
   C24        1.0     0.217600     0.510700     0.186500    Uiso  ? C
   N1         1.0     0.248800     0.163700     0.879900    Uiso  ? N
   N2         1.0     0.745900     0.652900     0.877100    Uiso  ? N
   N3         1.0     0.731500     0.833100     0.108900    Uiso  ? N
   N4         1.0     0.233200     0.343300     0.110900    Uiso  ? N
   N5         1.0     0.466600     0.986700     0.370000    Uiso  ? N
   N6         1.0     0.963000     0.490400     0.368300    Uiso  ? N
   N7         1.0     0.512700     0.003300     0.616400    Uiso  ? N
   N8         1.0     0.012800     0.499100     0.612000    Uiso  ? N
   O1         1.0     0.312600     0.191200     0.618700    Uiso  ? O
   O2         1.0     0.312300     0.186500     0.368800    Uiso  ? O
   O3         1.0     0.804200     0.687500     0.618400    Uiso  ? O
   O4         1.0     0.804100     0.668800     0.375800    Uiso  ? O
   O5         1.0     0.663000     0.164800     0.368800    Uiso  ? O
   O6         1.0     0.675100     0.175300     0.623700    Uiso  ? O
   O7         1.0     0.166600     0.675200     0.368800    Uiso  ? O
   O8         1.0     0.174900     0.686900     0.624200    Uiso  ? O
   O9         1.0     0.666000     0.803100     0.366300    Uiso  ? O
   O10        1.0     0.666900     0.812500     0.617600    Uiso  ? O
   O11        1.0     0.174600     0.312200     0.367800    Uiso  ? O
   O12        1.0     0.174900     0.324100     0.610000    Uiso  ? O
   O13        1.0     0.311900     0.831400     0.617400    Uiso  ? O
   O14        1.0     0.304000     0.822600     0.368400    Uiso  ? O
   O15        1.0     0.809000     0.325200     0.612500    Uiso  ? O
   O16        1.0     0.800200     0.309200     0.362000    Uiso  ? O
   O17        1.0     0.204400     0.999200     0.492500    Uiso  ? O
   O18        1.0     0.400400     0.011300     0.743200    Uiso  ? O
   O19        1.0     0.286700     0.012100     0.179200    Uiso  ? O
   O20        1.0     0.695900     0.497800     0.492800    Uiso  ? O
   O21        1.0     0.897100     0.511200     0.735900    Uiso  ? O
   O22        1.0     0.782900     0.511000     0.178900    Uiso  ? O
   O23        1.0     0.774900     0.000100     0.486400    Uiso  ? O
   O24        1.0     0.578900     0.977900     0.237000    Uiso  ? O
   O25        1.0     0.691800     0.978500     0.811000    Uiso  ? O
   O26        1.0     0.283200     0.501300     0.486600    Uiso  ? O
   O27        1.0     0.079500     0.478000     0.249900    Uiso  ? O
   O28        1.0     0.191900     0.479600     0.806700    Uiso  ? O
