
#======================================================================
# CRYSTAL DATA
#----------------------------------------------------------------------
data_VESTA_phase_1

_chemical_name_common                  'MIP203-S'
_cell_length_a                         11.893200
_cell_length_b                         10.035100
_cell_length_c                         19.876400
_cell_angle_alpha                      90.000000
_cell_angle_beta                       90.000000
_cell_angle_gamma                      90.000000
_cell_volume                           2372.237414
_space_group_name_H-M_alt              'P 1'
_space_group_IT_number                 1

loop_
_space_group_symop_operation_xyz
   'x, y, z'

loop_
   _atom_site_label
   _atom_site_occupancy
   _atom_site_fract_x
   _atom_site_fract_y
   _atom_site_fract_z
   _atom_site_adp_type
   _atom_site_U_iso_or_equiv
   _atom_site_type_symbol
   Zr1        1.0     0.657900     0.318300     0.000300    Uiso  ? Zr
   Zr2        1.0     0.162800     0.821600     0.500400    Uiso  ? Zr
   Zr3        1.0     0.337700     0.674700     0.000400    Uiso  ? Zr
   Zr4        1.0     0.838800     0.178200     0.500400    Uiso  ? Zr
   Zr5        1.0     0.645300     0.670600     0.999300    Uiso  ? Zr
   Zr6        1.0     0.144300     0.174300     0.499000    Uiso  ? Zr
   Zr7        1.0     0.354600     0.322600     0.999000    Uiso  ? Zr
   Zr8        1.0     0.855200     0.824700     0.499400    Uiso  ? Zr
   Zr9        1.0     0.500100     0.498600     0.124100    Uiso  ? Zr
   Zr10       1.0     0.500000     0.499100     0.876100    Uiso  ? Zr
   Zr11       1.0     0.999700     0.000000     0.624200    Uiso  ? Zr
   Zr12       1.0     0.999600     0.998000     0.376800    Uiso  ? Zr
   H1         1.0     0.783900     0.856900     0.209500    Uiso  ? H
   H2         1.0     0.257400     0.098600     0.790800    Uiso  ? H
   H3         1.0     0.368300     0.824000     0.452100    Uiso  ? H
   H4         1.0     0.868000     0.715800     0.202000    Uiso  ? H
   H5         1.0     0.158100     0.225600     0.793200    Uiso  ? H
   H6         1.0     0.625700     0.790700     0.538800    Uiso  ? H
   H7         1.0     0.284600     0.360600     0.710900    Uiso  ? H
   H8         1.0     0.754700     0.597200     0.291100    Uiso  ? H
   H9         1.0     0.367600     0.218900     0.701700    Uiso  ? H
   H10        1.0     0.657600     0.726500     0.292700    Uiso  ? H
   H11        1.0     0.138400     0.291300     0.044600    Uiso  ? H
   H12        1.0     0.212300     0.142100     0.209300    Uiso  ? H
   H13        1.0     0.749700     0.895600     0.790500    Uiso  ? H
   H14        1.0     0.131700     0.286200     0.202200    Uiso  ? H
   H15        1.0     0.844400     0.763900     0.793300    Uiso  ? H
   H16        1.0     0.361300     0.214100     0.544400    Uiso  ? H
   H17        1.0     0.718700     0.635000     0.709800    Uiso  ? H
   H18        1.0     0.243900     0.399000     0.292700    Uiso  ? H
   H19        1.0     0.130900     0.669100     0.952600    Uiso  ? H
   H20        1.0     0.634100     0.775800     0.702500    Uiso  ? H
   H21        1.0     0.341600     0.270300     0.292900    Uiso  ? H
   H22        1.0     0.879800     0.701100     0.034300    Uiso  ? H
   H23        1.0     0.693500     0.135200     0.237300    Uiso  ? H
   H24        1.0     0.340600     0.878200     0.763900    Uiso  ? H
   H25        1.0     0.385800     0.229800     0.466500    Uiso  ? H
   H26        1.0     0.825500     0.166100     0.199800    Uiso  ? H
   H27        1.0     0.202100     0.860100     0.795300    Uiso  ? H
   H28        1.0     0.630200     0.176300     0.534500    Uiso  ? H
   H29        1.0     0.191100     0.634900     0.735400    Uiso  ? H
   H30        1.0     0.842000     0.380400     0.263300    Uiso  ? H
   H31        1.0     0.865800     0.738700     0.957900    Uiso  ? H
   H32        1.0     0.324600     0.665100     0.699800    Uiso  ? H
   H33        1.0     0.704700     0.360400     0.296400    Uiso  ? H
   H34        1.0     0.309100     0.862800     0.236800    Uiso  ? H
   H35        1.0     0.656600     0.112600     0.765000    Uiso  ? H
   H36        1.0     0.628900     0.761600     0.461100    Uiso  ? H
   H37        1.0     0.176100     0.833000     0.200100    Uiso  ? H
   H38        1.0     0.794700     0.136700     0.796000    Uiso  ? H
   H39        1.0     0.798900     0.361500     0.735800    Uiso  ? H
   H40        1.0     0.160200     0.617800     0.262200    Uiso  ? H
   H41        1.0     0.115300     0.271200     0.967000    Uiso  ? H
   H42        1.0     0.666900     0.325200     0.699700    Uiso  ? H
   H43        1.0     0.297900     0.636400     0.295000    Uiso  ? H
   H44        1.0     0.866100     0.324100     0.034500    Uiso  ? H
   H45        1.0     0.791300     0.496700     0.433900    Uiso  ? H
   H46        1.0     0.752100     0.492700     0.911400    Uiso  ? H
   H47        1.0     0.272300     0.990400     0.940300    Uiso  ? H
   H48        1.0     0.246000     0.003500     0.405100    Uiso  ? H
   H49        1.0     0.216400     0.495800     0.436200    Uiso  ? H
   H50        1.0     0.253800     0.493100     0.905200    Uiso  ? H
   H51        1.0     0.704800     0.000800     0.931800    Uiso  ? H
   H52        1.0     0.749400     0.002200     0.409200    Uiso  ? H
   H53        1.0     0.503300     0.788100     0.091000    Uiso  ? H
   H54        1.0     0.001700     0.292100     0.590500    Uiso  ? H
   H55        1.0     0.497500     0.203400     0.090300    Uiso  ? H
   H56        1.0     0.997300     0.708100     0.591000    Uiso  ? H
   C1         1.0     0.690300     0.288200     0.164400    Uiso  ? C
   C2         1.0     0.750400     0.214800     0.220000    Uiso  ? C
   C3         1.0     0.323400     0.725000     0.836500    Uiso  ? C
   C4         1.0     0.779100     0.306000     0.279000    Uiso  ? C
   C5         1.0     0.191900     0.788200     0.662700    Uiso  ? C
   C6         1.0     0.249200     0.714300     0.719100    Uiso  ? C
   C7         1.0     0.828400     0.227900     0.336800    Uiso  ? C
   C8         1.0     0.276400     0.804500     0.778700    Uiso  ? C
   C9         1.0     0.310100     0.711500     0.162800    Uiso  ? C
   C10        1.0     0.251500     0.783800     0.219400    Uiso  ? C
   C11        1.0     0.670700     0.267800     0.837000    Uiso  ? C
   C12        1.0     0.223500     0.691500     0.278200    Uiso  ? C
   C13        1.0     0.804200     0.207000     0.664000    Uiso  ? C
   C14        1.0     0.743600     0.279500     0.719500    Uiso  ? C
   C15        1.0     0.174600     0.769000     0.336400    Uiso  ? C
   C16        1.0     0.718900     0.189000     0.779300    Uiso  ? C
   C17        1.0     0.704200     0.695000     0.160100    Uiso  ? C
   C18        1.0     0.781900     0.747700     0.213900    Uiso  ? C
   C19        1.0     0.313300     0.275900     0.839100    Uiso  ? C
   C20        1.0     0.747200     0.705500     0.284300    Uiso  ? C
   C21        1.0     0.203300     0.201300     0.660400    Uiso  ? C
   C22        1.0     0.281800     0.251300     0.714300    Uiso  ? C
   C23        1.0     0.813000     0.773800     0.339100    Uiso  ? C
   C24        1.0     0.248000     0.206800     0.784400    Uiso  ? C
   C25        1.0     0.295900     0.301800     0.160600    Uiso  ? C
   C26        1.0     0.217000     0.251100     0.214200    Uiso  ? C
   C27        1.0     0.687400     0.721500     0.839000    Uiso  ? C
   C28        1.0     0.251800     0.291100     0.284700    Uiso  ? C
   C29        1.0     0.797300     0.797400     0.660200    Uiso  ? C
   C30        1.0     0.720500     0.744200     0.714100    Uiso  ? C
   C31        1.0     0.186600     0.220500     0.339100    Uiso  ? C
   C32        1.0     0.755300     0.787100     0.784300    Uiso  ? C
   C33        1.0     0.838200     0.499200     0.481800    Uiso  ? C
   C34        1.0     0.331700     0.994900     0.983000    Uiso  ? C
   C35        1.0     0.162400     0.498200     0.481400    Uiso  ? C
   C36        1.0     0.662200     0.997000     0.981200    Uiso  ? C
   O1         1.0     0.611400     0.367000     0.182800    Uiso  ? O
   O2         1.0     0.722000     0.264300     0.104700    Uiso  ? O
   O3         1.0     0.631700     0.104000     0.008700    Uiso  ? O
   O4         1.0     0.827000     0.327900     0.991800    Uiso  ? O
   O5         1.0     0.383300     0.624300     0.820400    Uiso  ? O
   O6         1.0     0.298600     0.760300     0.895700    Uiso  ? O
   O7         1.0     0.116100     0.872000     0.679700    Uiso  ? O
   O8         1.0     0.222100     0.760000     0.603600    Uiso  ? O
   O9         1.0     0.131400     0.608400     0.504800    Uiso  ? O
   O10        1.0     0.332700     0.823900     0.495900    Uiso  ? O
   O11        1.0     0.889000     0.127700     0.320400    Uiso  ? O
   O12        1.0     0.805500     0.264500     0.395800    Uiso  ? O
   O13        1.0     0.389000     0.631900     0.179800    Uiso  ? O
   O14        1.0     0.277900     0.736300     0.103700    Uiso  ? O
   O15        1.0     0.374800     0.888600     0.004600    Uiso  ? O
   O16        1.0     0.167600     0.672400     0.996000    Uiso  ? O
   O17        1.0     0.610800     0.368400     0.820500    Uiso  ? O
   O18        1.0     0.694200     0.231500     0.896000    Uiso  ? O
   O19        1.0     0.883200     0.128700     0.682400    Uiso  ? O
   O20        1.0     0.772100     0.231400     0.604400    Uiso  ? O
   O21        1.0     0.868100     0.391400     0.508800    Uiso  ? O
   O22        1.0     0.668400     0.175500     0.491400    Uiso  ? O
   O23        1.0     0.110500     0.865800     0.320400    Uiso  ? O
   O24        1.0     0.201600     0.735700     0.395600    Uiso  ? O
   O25        1.0     0.617600     0.631500     0.179300    Uiso  ? O
   O26        1.0     0.730400     0.720000     0.099400    Uiso  ? O
   O27        1.0     0.645100     0.885500     0.008900    Uiso  ? O
   O28        1.0     0.847200     0.671900     0.991700    Uiso  ? O
   O29        1.0     0.388200     0.358700     0.821100    Uiso  ? O
   O30        1.0     0.285400     0.247400     0.899600    Uiso  ? O
   O31        1.0     0.117600     0.135800     0.679100    Uiso  ? O
   O32        1.0     0.229000     0.231300     0.600000    Uiso  ? O
   O33        1.0     0.132300     0.389700     0.508400    Uiso  ? O
   O34        1.0     0.347100     0.175800     0.499900    Uiso  ? O
   O35        1.0     0.888300     0.856100     0.321200    Uiso  ? O
   O36        1.0     0.785600     0.744300     0.399600    Uiso  ? O
   O37        1.0     0.381600     0.367500     0.179200    Uiso  ? O
   O38        1.0     0.270600     0.272100     0.100100    Uiso  ? O
   O39        1.0     0.355100     0.107000     0.008600    Uiso  ? O
   O40        1.0     0.152700     0.328000     0.999700    Uiso  ? O
   O41        1.0     0.611300     0.640200     0.821000    Uiso  ? O
   O42        1.0     0.714100     0.751800     0.899400    Uiso  ? O
   O43        1.0     0.882400     0.864300     0.679000    Uiso  ? O
   O44        1.0     0.770800     0.769100     0.599800    Uiso  ? O
   O45        1.0     0.861400     0.610000     0.508600    Uiso  ? O
   O46        1.0     0.653000     0.824100     0.495600    Uiso  ? O
   O47        1.0     0.112300     0.136900     0.321000    Uiso  ? O
   O48        1.0     0.214500     0.248800     0.399600    Uiso  ? O
   O49        1.0     0.374100     0.496900     0.053400    Uiso  ? O
   O50        1.0     0.679300     0.496800     0.933300    Uiso  ? O
   O51        1.0     0.874200     0.999900     0.553700    Uiso  ? O
   O52        1.0     0.179700     0.999600     0.433300    Uiso  ? O
   O53        1.0     0.625400     0.496200     0.053800    Uiso  ? O
   O54        1.0     0.320000     0.496500     0.933400    Uiso  ? O
   O55        1.0     0.125800     0.000000     0.553500    Uiso  ? O
   O56        1.0     0.820200     0.999600     0.433400    Uiso  ? O
   O57        1.0     0.499900     0.288300     0.066900    Uiso  ? O
   O58        1.0     0.499200     0.648000     0.945900    Uiso  ? O
   O59        1.0     0.000200     0.792500     0.567100    Uiso  ? O
   O60        1.0     0.999700     0.150500     0.445700    Uiso  ? O
   O61        1.0     0.500200     0.703900     0.066900    Uiso  ? O
   O62        1.0     0.499800     0.350700     0.946000    Uiso  ? O
   O63        1.0     0.998900     0.207000     0.567300    Uiso  ? O
   O64        1.0     0.000700     0.848300     0.446100    Uiso  ? O
