
#======================================================================
# CRYSTAL DATA
#----------------------------------------------------------------------
data_VESTA_phase_1

_chemical_name_common                  'MIP203-M'
_cell_length_a                         10.101000
_cell_length_b                         12.048000
_cell_length_c                         20.083000
_cell_angle_alpha                      90.000000
_cell_angle_beta                       90.000000
_cell_angle_gamma                      90.000000
_cell_volume                           2444.037848
_space_group_name_H-M_alt              'P 1'
_space_group_IT_number                 1

loop_
_space_group_symop_operation_xyz
   'x, y, z'

loop_
   _atom_site_label
   _atom_site_occupancy
   _atom_site_fract_x
   _atom_site_fract_y
   _atom_site_fract_z
   _atom_site_adp_type
   _atom_site_U_iso_or_equiv
   _atom_site_type_symbol
   Zr1        1.0     0.681000     0.356400     0.002800    Uiso  ? Zr
   Zr2        1.0     0.176600     0.854800     0.503400    Uiso  ? Zr
   Zr3        1.0     0.327900     0.341100     0.001900    Uiso  ? Zr
   Zr4        1.0     0.999800     0.999100     0.626200    Uiso  ? Zr
   Zr5        1.0     0.177200     0.154400     0.502600    Uiso  ? Zr
   Zr6        1.0     0.500000     0.498500     0.125000    Uiso  ? Zr
   Zr7        1.0     0.500500     0.500000     0.881200    Uiso  ? Zr
   Zr8        1.0     0.000100     0.000000     0.380500    Uiso  ? Zr
   Zr9        1.0     0.823700     0.144900     0.503500    Uiso  ? Zr
   Zr10       1.0     0.823200     0.845400     0.502600    Uiso  ? Zr
   Zr11       1.0     0.673400     0.656600     0.002000    Uiso  ? Zr
   Zr12       1.0     0.319800     0.641500     0.003300    Uiso  ? Zr
   H1         1.0     0.289800     0.656900     0.300800    Uiso  ? H
   H2         1.0     0.846000     0.900900     0.226800    Uiso  ? H
   H3         1.0     0.877500     0.713400     0.777000    Uiso  ? H
   H4         1.0     0.616100     0.791700     0.275700    Uiso  ? H
   H5         1.0     0.180500     0.365600     0.541600    Uiso  ? H
   H6         1.0     0.691400     0.665800     0.299000    Uiso  ? H
   H7         1.0     0.385000     0.791100     0.726600    Uiso  ? H
   H8         1.0     0.974100     0.343700     0.505300    Uiso  ? H
   H9         1.0     0.112600     0.292300     0.224100    Uiso  ? H
   H10        1.0     0.811200     0.168800     0.800400    Uiso  ? H
   H11        1.0     0.883900     0.295400     0.776200    Uiso  ? H
   H12        1.0     0.333100     0.875300     0.037400    Uiso  ? H
   H13        1.0     0.847100     0.100600     0.231100    Uiso  ? H
   H14        1.0     0.393600     0.203600     0.723800    Uiso  ? H
   H15        1.0     0.623100     0.221800     0.279900    Uiso  ? H
   H16        1.0     0.710100     0.343100     0.300800    Uiso  ? H
   H17        1.0     0.164300     0.626100     0.539800    Uiso  ? H
   H18        1.0     0.885400     0.709600     0.224500    Uiso  ? H
   H19        1.0     0.649200     0.400500     0.729000    Uiso  ? H
   H20        1.0     0.674100     0.128100     0.038800    Uiso  ? H
   H21        1.0     0.153900     0.899700     0.231100    Uiso  ? H
   H22        1.0     0.190400     0.832000     0.800700    Uiso  ? H
   H23        1.0     0.344700     0.129200     0.968400    Uiso  ? H
   H24        1.0     0.608000     0.791100     0.724000    Uiso  ? H
   H25        1.0     0.823000     0.630200     0.538200    Uiso  ? H
   H26        1.0     0.383100     0.217100     0.277300    Uiso  ? H
   H27        1.0     0.116300     0.706000     0.776900    Uiso  ? H
   H28        1.0     0.300100     0.339400     0.300800    Uiso  ? H
   H29        1.0     0.025500     0.656800     0.503100    Uiso  ? H
   H30        1.0     0.615500     0.208800     0.726700    Uiso  ? H
   H31        1.0     0.125300     0.281700     0.778100    Uiso  ? H
   H32        1.0     0.670800     0.866700     0.041400    Uiso  ? H
   H33        1.0     0.154300     0.101700     0.231400    Uiso  ? H
   H34        1.0     0.469700     0.842500     0.000800    Uiso  ? H
   H35        1.0     0.002300     0.232800     0.598700    Uiso  ? H
   H36        1.0     0.494700     0.732500     0.097900    Uiso  ? H
   H37        1.0     0.651500     0.600100     0.729400    Uiso  ? H
   H38        1.0     0.377100     0.778100     0.279800    Uiso  ? H
   H39        1.0     0.892800     0.290500     0.222500    Uiso  ? H
   H40        1.0     0.204600     0.157100     0.800500    Uiso  ? H
   H41        1.0     0.838700     0.370100     0.545600    Uiso  ? H
   H42        1.0     0.351300     0.599400     0.729000    Uiso  ? H
   H43        1.0     0.289700     0.999400     0.411800    Uiso  ? H
   H44        1.0     0.787000     0.506700     0.909900    Uiso  ? H
   H45        1.0     0.212800     0.493600     0.910100    Uiso  ? H
   H46        1.0     0.710000     0.000600     0.412100    Uiso  ? H
   H47        1.0     0.009200     0.275400     0.063300    Uiso  ? H
   H48        1.0     0.499900     0.776600     0.564600    Uiso  ? H
   H49        1.0     0.992700     0.726600     0.062600    Uiso  ? H
   H50        1.0     0.500300     0.223900     0.564300    Uiso  ? H
   H51        1.0     0.502400     0.261400     0.097400    Uiso  ? H
   H52        1.0     0.997700     0.766100     0.597800    Uiso  ? H
   H53        1.0     0.348000     0.395600     0.729200    Uiso  ? H
   H54        1.0     0.107400     0.709200     0.222500    Uiso  ? H
   H55        1.0     0.536800     0.158700     0.000700    Uiso  ? H
   H56        1.0     0.798900     0.838200     0.799500    Uiso  ? H
   C1         1.0     0.788200     0.253400     0.783900    Uiso  ? C
   C2         1.0     0.722800     0.317700     0.162800    Uiso  ? C
   C3         1.0     0.794000     0.250900     0.217300    Uiso  ? C
   C4         1.0     0.293900     0.304300     0.839400    Uiso  ? C
   C5         1.0     0.223100     0.242500     0.784200    Uiso  ? C
   C6         1.0     0.218700     0.814900     0.664000    Uiso  ? C
   C7         1.0     0.782800     0.811600     0.339100    Uiso  ? C
   C8         1.0     0.289300     0.747700     0.718200    Uiso  ? C
   C9         1.0     0.712600     0.750800     0.282900    Uiso  ? C
   C10        1.0     0.209400     0.806800     0.340900    Uiso  ? C
   C11        1.0     0.276800     0.743200     0.284800    Uiso  ? C
   C12        1.0     0.777100     0.818200     0.663700    Uiso  ? C
   C13        1.0     0.282200     0.686000     0.840700    Uiso  ? C
   C14        1.0     0.210000     0.250600     0.217200    Uiso  ? C
   C15        1.0     0.705700     0.750300     0.717100    Uiso  ? C
   C16        1.0     0.788400     0.751100     0.216500    Uiso  ? C
   C17        1.0     0.718400     0.682500     0.162600    Uiso  ? C
   C18        1.0     0.280600     0.317300     0.162600    Uiso  ? C
   C19        1.0     0.711000     0.252200     0.718000    Uiso  ? C
   C20        1.0     0.216300     0.189800     0.339600    Uiso  ? C
   C21        1.0     0.284100     0.253900     0.283900    Uiso  ? C
   C22        1.0     0.718100     0.314100     0.840100    Uiso  ? C
   C23        1.0     0.781400     0.184600     0.664000    Uiso  ? C
   C24        1.0     0.779900     0.752800     0.783500    Uiso  ? C
   C25        1.0     0.206200     0.749000     0.217200    Uiso  ? C
   C26        1.0     0.710000     0.691900     0.839300    Uiso  ? C
   C27        1.0     0.277500     0.682000     0.162800    Uiso  ? C
   C28        1.0     0.723300     0.256800     0.284900    Uiso  ? C
   C29        1.0     0.790800     0.193300     0.341100    Uiso  ? C
   C30        1.0     0.295800     0.244500     0.717400    Uiso  ? C
   C31        1.0     0.223200     0.177700     0.663900    Uiso  ? C
   C32        1.0     0.212500     0.747200     0.784400    Uiso  ? C
   C33        1.0     0.005700     0.331900     0.020000    Uiso  ? C
   C34        1.0     0.500000     0.834200     0.521700    Uiso  ? C
   C35        1.0     0.500200     0.166000     0.521600    Uiso  ? C
   C36        1.0     0.995100     0.666667     0.021000    Uiso  ? C
   O1         1.0     0.872800     0.333400     0.506000    Uiso  ? O
   O2         1.0     0.368300     0.386700     0.181400    Uiso  ? O
   O3         1.0     0.368300     0.386500     0.822700    Uiso  ? O
   O4         1.0     0.752300     0.293300     0.103000    Uiso  ? O
   O5         1.0     0.609600     0.133500     0.497700    Uiso  ? O
   O6         1.0     0.641100     0.392100     0.181200    Uiso  ? O
   O7         1.0     0.865500     0.887800     0.321500    Uiso  ? O
   O8         1.0     0.753500     0.786300     0.398300    Uiso  ? O
   O9         1.0     0.127600     0.666800     0.502200    Uiso  ? O
   O10        1.0     0.135700     0.887400     0.683200    Uiso  ? O
   O11        1.0     0.390600     0.866600     0.497700    Uiso  ? O
   O12        1.0     0.496000     0.666400     0.070400    Uiso  ? O
   O13        1.0     0.639600     0.167100     0.000100    Uiso  ? O
   O14        1.0     0.272100     0.272900     0.898300    Uiso  ? O
   O15        1.0     0.895000     0.367200     0.999600    Uiso  ? O
   O16        1.0     0.248900     0.792900     0.604100    Uiso  ? O
   O17        1.0     0.848600     0.999600     0.555600    Uiso  ? O
   O18        1.0     0.206500     0.999900     0.436000    Uiso  ? O
   O19        1.0     0.648300     0.500600     0.053900    Uiso  ? O
   O20        1.0     0.295900     0.493600     0.934500    Uiso  ? O
   O21        1.0     0.151200     0.000100     0.555600    Uiso  ? O
   O22        1.0     0.793500     0.000000     0.436000    Uiso  ? O
   O23        1.0     0.743800     0.799400     0.604000    Uiso  ? O
   O24        1.0     0.864200     0.887400     0.683100    Uiso  ? O
   O25        1.0     0.246800     0.299100     0.103000    Uiso  ? O
   O26        1.0     0.129000     0.885700     0.324500    Uiso  ? O
   O27        1.0     0.503700     0.328000     0.070300    Uiso  ? O
   O28        1.0     0.504700     0.374300     0.950100    Uiso  ? O
   O29        1.0     0.000100     0.165900     0.572000    Uiso  ? O
   O30        1.0     0.495900     0.626400     0.950100    Uiso  ? O
   O31        1.0     0.384000     0.172800     0.004000    Uiso  ? O
   O32        1.0     0.704200     0.505500     0.934400    Uiso  ? O
   O33        1.0     0.351700     0.495400     0.053800    Uiso  ? O
   O34        1.0     0.000100     0.126600     0.449300    Uiso  ? O
   O35        1.0     0.999900     0.873500     0.449300    Uiso  ? O
   O36        1.0     0.112600     0.359800     0.991600    Uiso  ? O
   O37        1.0     0.000000     0.833800     0.571900    Uiso  ? O
   O38        1.0     0.239400     0.780600     0.399700    Uiso  ? O
   O39        1.0     0.871500     0.674400     0.506000    Uiso  ? O
   O40        1.0     0.608600     0.866800     0.497600    Uiso  ? O
   O41        1.0     0.631600     0.612900     0.181400    Uiso  ? O
   O42        1.0     0.752500     0.700800     0.102900    Uiso  ? O
   O43        1.0     0.249400     0.707700     0.900000    Uiso  ? O
   O44        1.0     0.368400     0.612800     0.823100    Uiso  ? O
   O45        1.0     0.631400     0.826700     0.004300    Uiso  ? O
   O46        1.0     0.887800     0.633500     0.995600    Uiso  ? O
   O47        1.0     0.760900     0.219700     0.399900    Uiso  ? O
   O48        1.0     0.135400     0.325700     0.506200    Uiso  ? O
   O49        1.0     0.136800     0.107400     0.683100    Uiso  ? O
   O50        1.0     0.255700     0.199800     0.604600    Uiso  ? O
   O51        1.0     0.248000     0.706500     0.102900    Uiso  ? O
   O52        1.0     0.871000     0.114400     0.324500    Uiso  ? O
   O53        1.0     0.359000     0.607500     0.181100    Uiso  ? O
   O54        1.0     0.631400     0.387100     0.822900    Uiso  ? O
   O55        1.0     0.391500     0.133200     0.497700    Uiso  ? O
   O56        1.0     0.751200     0.206900     0.604100    Uiso  ? O
   O57        1.0     0.134700     0.112700     0.321800    Uiso  ? O
   O58        1.0     0.246600     0.213800     0.398800    Uiso  ? O
   O59        1.0     0.864200     0.112100     0.683200    Uiso  ? O
   O60        1.0     0.105800     0.632500     0.999700    Uiso  ? O
   O61        1.0     0.368500     0.833000     0.000100    Uiso  ? O
   O62        1.0     0.750900     0.292000     0.899200    Uiso  ? O
   O63        1.0     0.736000     0.720500     0.898000    Uiso  ? O
   O64        1.0     0.630800     0.612800     0.822600    Uiso  ? O
   O65        1.0     0.311900     0.639900     0.691600    Uiso  ? O
   O66        1.0     0.807800     0.140200     0.193400    Uiso  ? O
   O67        1.0     0.192100     0.140800     0.193100    Uiso  ? O
   O68        1.0     0.312000     0.353600     0.691500    Uiso  ? O
   O69        1.0     0.688300     0.640800     0.691400    Uiso  ? O
   O70        1.0     0.807800     0.859400     0.189500    Uiso  ? O
   O71        1.0     0.688200     0.360000     0.691500    Uiso  ? O
   O72        1.0     0.192200     0.859600     0.193300    Uiso  ? O
