
#======================================================================
# CRYSTAL DATA
#----------------------------------------------------------------------
data_VESTA_phase_1

_chemical_name_common                  'MIP211'
_cell_length_a                         23.608900
_cell_length_b                         23.608900
_cell_length_c                         11.231900
_cell_angle_alpha                      90.000000
_cell_angle_beta                       90.000000
_cell_angle_gamma                      90.000000
_cell_volume                           6260.438367
_space_group_name_H-M_alt              'P 1'
_space_group_IT_number                 1

loop_
_space_group_symop_operation_xyz
   'x, y, z'

loop_
   _atom_site_label
   _atom_site_occupancy
   _atom_site_fract_x
   _atom_site_fract_y
   _atom_site_fract_z
   _atom_site_adp_type
   _atom_site_U_iso_or_equiv
   _atom_site_type_symbol
   Al1        1.0     0.306510     0.750000     0.375000    Uiso  ? Al
   Al2        1.0     0.693490     0.750000     0.875000    Uiso  ? Al
   Al3        1.0     0.250000     0.806510     0.625000    Uiso  ? Al
   Al4        1.0     0.693490     0.250000     0.375000    Uiso  ? Al
   Al5        1.0     0.750000     0.193490     0.625000    Uiso  ? Al
   Al6        1.0     0.750000     0.693490     0.625000    Uiso  ? Al
   Al7        1.0     0.250000     0.306510     0.625000    Uiso  ? Al
   Al8        1.0     0.806510     0.250000     0.875000    Uiso  ? Al
   Al9        1.0     0.193490     0.750000     0.875000    Uiso  ? Al
   Al10       1.0     0.750000     0.306510     0.125000    Uiso  ? Al
   Al11       1.0     0.250000     0.693490     0.125000    Uiso  ? Al
   Al12       1.0     0.306510     0.250000     0.875000    Uiso  ? Al
   Al13       1.0     0.193490     0.250000     0.375000    Uiso  ? Al
   Al14       1.0     0.250000     0.193490     0.125000    Uiso  ? Al
   Al15       1.0     0.750000     0.806510     0.125000    Uiso  ? Al
   Al16       1.0     0.806510     0.750000     0.375000    Uiso  ? Al
   H1         1.0     0.068850     0.801950     0.521310    Uiso  ? H
   H2         1.0     0.228720     0.966290     0.486830    Uiso  ? H
   H3         1.0     0.724200     0.775800     0.500000    Uiso  ? H
   H4         1.0     0.931150     0.698050     0.728690    Uiso  ? H
   H5         1.0     0.771280     0.533710     0.763170    Uiso  ? H
   H6         1.0     0.275800     0.724200     0.750000    Uiso  ? H
   H7         1.0     0.198050     0.568850     0.771310    Uiso  ? H
   H8         1.0     0.033710     0.728720     0.736830    Uiso  ? H
   H9         1.0     0.224200     0.224200     0.750000    Uiso  ? H
   H10        1.0     0.931150     0.198050     0.521310    Uiso  ? H
   H11        1.0     0.771280     0.033710     0.486830    Uiso  ? H
   H12        1.0     0.275800     0.224200     0.500000    Uiso  ? H
   H13        1.0     0.801950     0.431150     0.771310    Uiso  ? H
   H14        1.0     0.966290     0.271280     0.736830    Uiso  ? H
   H15        1.0     0.775800     0.775800     0.750000    Uiso  ? H
   H16        1.0     0.801950     0.931150     0.478690    Uiso  ? H
   H17        1.0     0.966290     0.771280     0.513170    Uiso  ? H
   H18        1.0     0.775800     0.275800     0.500000    Uiso  ? H
   H19        1.0     0.198050     0.068850     0.478690    Uiso  ? H
   H20        1.0     0.033710     0.228720     0.513170    Uiso  ? H
   H21        1.0     0.224200     0.724200     0.500000    Uiso  ? H
   H22        1.0     0.568850     0.198050     0.728690    Uiso  ? H
   H23        1.0     0.728720     0.033710     0.763170    Uiso  ? H
   H24        1.0     0.431150     0.801950     0.728690    Uiso  ? H
   H25        1.0     0.271280     0.966290     0.763170    Uiso  ? H
   H26        1.0     0.801950     0.068850     0.978690    Uiso  ? H
   H27        1.0     0.966290     0.228720     0.013170    Uiso  ? H
   H28        1.0     0.775800     0.724200     0.000000    Uiso  ? H
   H29        1.0     0.198050     0.931150     0.978690    Uiso  ? H
   H30        1.0     0.033710     0.771280     0.013170    Uiso  ? H
   H31        1.0     0.224200     0.275800     0.000000    Uiso  ? H
   H32        1.0     0.068850     0.301950     0.728690    Uiso  ? H
   H33        1.0     0.228720     0.466290     0.763170    Uiso  ? H
   H34        1.0     0.724200     0.275800     0.750000    Uiso  ? H
   H35        1.0     0.931150     0.801950     0.021310    Uiso  ? H
   H36        1.0     0.771280     0.966290     0.986830    Uiso  ? H
   H37        1.0     0.275800     0.775800     0.000000    Uiso  ? H
   H38        1.0     0.068850     0.198050     0.021310    Uiso  ? H
   H39        1.0     0.228720     0.033710     0.986830    Uiso  ? H
   H40        1.0     0.724200     0.224200     0.000000    Uiso  ? H
   H41        1.0     0.698050     0.931150     0.771310    Uiso  ? H
   H42        1.0     0.533710     0.771280     0.736830    Uiso  ? H
   H43        1.0     0.301950     0.068850     0.771310    Uiso  ? H
   H44        1.0     0.466290     0.228720     0.736830    Uiso  ? H
   H45        1.0     0.568850     0.301950     0.021310    Uiso  ? H
   H46        1.0     0.728720     0.466290     0.986830    Uiso  ? H
   H47        1.0     0.431150     0.198050     0.228690    Uiso  ? H
   H48        1.0     0.271280     0.033710     0.263170    Uiso  ? H
   H49        1.0     0.775800     0.224200     0.250000    Uiso  ? H
   H50        1.0     0.698050     0.068850     0.271310    Uiso  ? H
   H51        1.0     0.533710     0.228720     0.236830    Uiso  ? H
   H52        1.0     0.724200     0.724200     0.250000    Uiso  ? H
   H53        1.0     0.431150     0.698050     0.021310    Uiso  ? H
   H54        1.0     0.271280     0.533710     0.986830    Uiso  ? H
   H55        1.0     0.301950     0.931150     0.271310    Uiso  ? H
   H56        1.0     0.466290     0.771280     0.236830    Uiso  ? H
   H57        1.0     0.275800     0.275800     0.250000    Uiso  ? H
   H58        1.0     0.301950     0.431150     0.978690    Uiso  ? H
   H59        1.0     0.466290     0.271280     0.013170    Uiso  ? H
   H60        1.0     0.698050     0.568850     0.978690    Uiso  ? H
   H61        1.0     0.533710     0.728720     0.013170    Uiso  ? H
   H62        1.0     0.068850     0.698050     0.228690    Uiso  ? H
   H63        1.0     0.228720     0.533710     0.263170    Uiso  ? H
   H64        1.0     0.931150     0.301950     0.228690    Uiso  ? H
   H65        1.0     0.771280     0.466290     0.263170    Uiso  ? H
   H66        1.0     0.301950     0.568850     0.478690    Uiso  ? H
   H67        1.0     0.466290     0.728720     0.513170    Uiso  ? H
   H68        1.0     0.698050     0.431150     0.478690    Uiso  ? H
   H69        1.0     0.533710     0.271280     0.513170    Uiso  ? H
   H70        1.0     0.568850     0.801950     0.228690    Uiso  ? H
   H71        1.0     0.728720     0.966290     0.263170    Uiso  ? H
   H72        1.0     0.224200     0.775800     0.250000    Uiso  ? H
   H73        1.0     0.431150     0.301950     0.521310    Uiso  ? H
   H74        1.0     0.271280     0.466290     0.486830    Uiso  ? H
   H75        1.0     0.568850     0.698050     0.521310    Uiso  ? H
   H76        1.0     0.728720     0.533710     0.486830    Uiso  ? H
   H77        1.0     0.198050     0.431150     0.271310    Uiso  ? H
   H78        1.0     0.033710     0.271280     0.236830    Uiso  ? H
   H79        1.0     0.801950     0.568850     0.271310    Uiso  ? H
   H80        1.0     0.966290     0.728720     0.236830    Uiso  ? H
   C1         1.0     0.371410     0.779470     0.586480    Uiso  ? C
   C2         1.0     0.278860     0.927680     0.355230    Uiso  ? C
   C3         1.0     0.251000     0.972480     0.402380    Uiso  ? C
   C4         1.0     0.628590     0.720530     0.663520    Uiso  ? C
   C5         1.0     0.721140     0.572320     0.894770    Uiso  ? C
   C6         1.0     0.749000     0.527520     0.847620    Uiso  ? C
   C7         1.0     0.220530     0.871410     0.836480    Uiso  ? C
   C8         1.0     0.072320     0.778860     0.605230    Uiso  ? C
   C9         1.0     0.027520     0.751000     0.652380    Uiso  ? C
   C10        1.0     0.628590     0.220530     0.586480    Uiso  ? C
   C11        1.0     0.721140     0.072320     0.355230    Uiso  ? C
   C12        1.0     0.749000     0.027520     0.402380    Uiso  ? C
   C13        1.0     0.779470     0.128590     0.836480    Uiso  ? C
   C14        1.0     0.927680     0.221140     0.605230    Uiso  ? C
   C15        1.0     0.972480     0.249000     0.652380    Uiso  ? C
   C16        1.0     0.779470     0.628590     0.413520    Uiso  ? C
   C17        1.0     0.927680     0.721140     0.644770    Uiso  ? C
   C18        1.0     0.972480     0.749000     0.597620    Uiso  ? C
   C19        1.0     0.220530     0.371410     0.413520    Uiso  ? C
   C20        1.0     0.072320     0.278860     0.644770    Uiso  ? C
   C21        1.0     0.027520     0.251000     0.597620    Uiso  ? C
   C22        1.0     0.871410     0.220530     0.663520    Uiso  ? C
   C23        1.0     0.778860     0.072320     0.894770    Uiso  ? C
   C24        1.0     0.751000     0.027520     0.847620    Uiso  ? C
   C25        1.0     0.128590     0.779470     0.663520    Uiso  ? C
   C26        1.0     0.221140     0.927680     0.894770    Uiso  ? C
   C27        1.0     0.249000     0.972480     0.847620    Uiso  ? C
   C28        1.0     0.779470     0.371410     0.913520    Uiso  ? C
   C29        1.0     0.927680     0.278860     0.144770    Uiso  ? C
   C30        1.0     0.972480     0.251000     0.097620    Uiso  ? C
   C31        1.0     0.220530     0.628590     0.913520    Uiso  ? C
   C32        1.0     0.072320     0.721140     0.144770    Uiso  ? C
   C33        1.0     0.027520     0.749000     0.097620    Uiso  ? C
   C34        1.0     0.371410     0.279470     0.663520    Uiso  ? C
   C35        1.0     0.278860     0.427680     0.894770    Uiso  ? C
   C36        1.0     0.251000     0.472480     0.847620    Uiso  ? C
   C37        1.0     0.628590     0.779470     0.086480    Uiso  ? C
   C38        1.0     0.721140     0.927680     0.855230    Uiso  ? C
   C39        1.0     0.749000     0.972480     0.902380    Uiso  ? C
   C40        1.0     0.371410     0.220530     0.086480    Uiso  ? C
   C41        1.0     0.278860     0.072320     0.855230    Uiso  ? C
   C42        1.0     0.251000     0.027520     0.902380    Uiso  ? C
   C43        1.0     0.720530     0.628590     0.836480    Uiso  ? C
   C44        1.0     0.572320     0.721140     0.605230    Uiso  ? C
   C45        1.0     0.527520     0.749000     0.652380    Uiso  ? C
   C46        1.0     0.279470     0.371410     0.836480    Uiso  ? C
   C47        1.0     0.427680     0.278860     0.605230    Uiso  ? C
   C48        1.0     0.472480     0.251000     0.652380    Uiso  ? C
   C49        1.0     0.871410     0.279470     0.086480    Uiso  ? C
   C50        1.0     0.778860     0.427680     0.855230    Uiso  ? C
   C51        1.0     0.751000     0.472480     0.902380    Uiso  ? C
   C52        1.0     0.128590     0.220530     0.163520    Uiso  ? C
   C53        1.0     0.221140     0.072320     0.394770    Uiso  ? C
   C54        1.0     0.249000     0.027520     0.347620    Uiso  ? C
   C55        1.0     0.720530     0.371410     0.336480    Uiso  ? C
   C56        1.0     0.572320     0.278860     0.105230    Uiso  ? C
   C57        1.0     0.527520     0.251000     0.152380    Uiso  ? C
   C58        1.0     0.128590     0.720530     0.086480    Uiso  ? C
   C59        1.0     0.221140     0.572320     0.855230    Uiso  ? C
   C60        1.0     0.249000     0.527520     0.902380    Uiso  ? C
   C61        1.0     0.279470     0.628590     0.336480    Uiso  ? C
   C62        1.0     0.427680     0.721140     0.105230    Uiso  ? C
   C63        1.0     0.472480     0.749000     0.152380    Uiso  ? C
   C64        1.0     0.279470     0.128590     0.913520    Uiso  ? C
   C65        1.0     0.427680     0.221140     0.144770    Uiso  ? C
   C66        1.0     0.472480     0.249000     0.097620    Uiso  ? C
   C67        1.0     0.720530     0.871410     0.913520    Uiso  ? C
   C68        1.0     0.572320     0.778860     0.144770    Uiso  ? C
   C69        1.0     0.527520     0.751000     0.097620    Uiso  ? C
   C70        1.0     0.371410     0.720530     0.163520    Uiso  ? C
   C71        1.0     0.278860     0.572320     0.394770    Uiso  ? C
   C72        1.0     0.251000     0.527520     0.347620    Uiso  ? C
   C73        1.0     0.628590     0.279470     0.163520    Uiso  ? C
   C74        1.0     0.721140     0.427680     0.394770    Uiso  ? C
   C75        1.0     0.749000     0.472480     0.347620    Uiso  ? C
   C76        1.0     0.279470     0.871410     0.413520    Uiso  ? C
   C77        1.0     0.427680     0.778860     0.644770    Uiso  ? C
   C78        1.0     0.472480     0.751000     0.597620    Uiso  ? C
   C79        1.0     0.720530     0.128590     0.413520    Uiso  ? C
   C80        1.0     0.572320     0.221140     0.644770    Uiso  ? C
   C81        1.0     0.527520     0.249000     0.597620    Uiso  ? C
   C82        1.0     0.871410     0.779470     0.163520    Uiso  ? C
   C83        1.0     0.778860     0.927680     0.394770    Uiso  ? C
   C84        1.0     0.751000     0.972480     0.347620    Uiso  ? C
   C85        1.0     0.128590     0.279470     0.586480    Uiso  ? C
   C86        1.0     0.221140     0.427680     0.355230    Uiso  ? C
   C87        1.0     0.249000     0.472480     0.402380    Uiso  ? C
   C88        1.0     0.871410     0.720530     0.586480    Uiso  ? C
   C89        1.0     0.778860     0.572320     0.355230    Uiso  ? C
   C90        1.0     0.751000     0.527520     0.402380    Uiso  ? C
   C91        1.0     0.220530     0.128590     0.336480    Uiso  ? C
   C92        1.0     0.072320     0.221140     0.105230    Uiso  ? C
   C93        1.0     0.027520     0.249000     0.152380    Uiso  ? C
   C94        1.0     0.779470     0.871410     0.336480    Uiso  ? C
   C95        1.0     0.927680     0.778860     0.105230    Uiso  ? C
   C96        1.0     0.972480     0.751000     0.152380    Uiso  ? C
   O1         1.0     0.168060     0.805890     0.609170    Uiso  ? O
   O2         1.0     0.253640     0.866600     0.512270    Uiso  ? O
   O3         1.0     0.246800     0.253200     0.500000    Uiso  ? O
   O4         1.0     0.831940     0.694110     0.640830    Uiso  ? O
   O5         1.0     0.746360     0.633400     0.737730    Uiso  ? O
   O6         1.0     0.753200     0.246800     0.750000    Uiso  ? O
   O7         1.0     0.194110     0.668060     0.859170    Uiso  ? O
   O8         1.0     0.133400     0.753640     0.762270    Uiso  ? O
   O9         1.0     0.746800     0.746800     0.750000    Uiso  ? O
   O10        1.0     0.831940     0.194110     0.609170    Uiso  ? O
   O11        1.0     0.746360     0.133400     0.512270    Uiso  ? O
   O12        1.0     0.753200     0.746800     0.500000    Uiso  ? O
   O13        1.0     0.805890     0.331940     0.859170    Uiso  ? O
   O14        1.0     0.866600     0.246360     0.762270    Uiso  ? O
   O15        1.0     0.253200     0.253200     0.750000    Uiso  ? O
   O16        1.0     0.805890     0.831940     0.390830    Uiso  ? O
   O17        1.0     0.866600     0.746360     0.487730    Uiso  ? O
   O18        1.0     0.253200     0.753200     0.500000    Uiso  ? O
   O19        1.0     0.194110     0.168060     0.390830    Uiso  ? O
   O20        1.0     0.133400     0.253640     0.487730    Uiso  ? O
   O21        1.0     0.746800     0.246800     0.500000    Uiso  ? O
   O22        1.0     0.668060     0.194110     0.640830    Uiso  ? O
   O23        1.0     0.753640     0.133400     0.737730    Uiso  ? O
   O24        1.0     0.331940     0.805890     0.640830    Uiso  ? O
   O25        1.0     0.246360     0.866600     0.737730    Uiso  ? O
   O26        1.0     0.805890     0.168060     0.890830    Uiso  ? O
   O27        1.0     0.866600     0.253640     0.987730    Uiso  ? O
   O28        1.0     0.253200     0.246800     0.000000    Uiso  ? O
   O29        1.0     0.194110     0.831940     0.890830    Uiso  ? O
   O30        1.0     0.133400     0.746360     0.987730    Uiso  ? O
   O31        1.0     0.746800     0.753200     0.000000    Uiso  ? O
   O32        1.0     0.168060     0.305890     0.640830    Uiso  ? O
   O33        1.0     0.253640     0.366600     0.737730    Uiso  ? O
   O34        1.0     0.246800     0.753200     0.750000    Uiso  ? O
   O35        1.0     0.831940     0.805890     0.109170    Uiso  ? O
   O36        1.0     0.746360     0.866600     0.012270    Uiso  ? O
   O37        1.0     0.753200     0.253200     0.000000    Uiso  ? O
   O38        1.0     0.168060     0.194110     0.109170    Uiso  ? O
   O39        1.0     0.253640     0.133400     0.012270    Uiso  ? O
   O40        1.0     0.246800     0.746800     0.000000    Uiso  ? O
   O41        1.0     0.694110     0.831940     0.859170    Uiso  ? O
   O42        1.0     0.633400     0.746360     0.762270    Uiso  ? O
   O43        1.0     0.305890     0.168060     0.859170    Uiso  ? O
   O44        1.0     0.366600     0.253640     0.762270    Uiso  ? O
   O45        1.0     0.668060     0.305890     0.109170    Uiso  ? O
   O46        1.0     0.753640     0.366600     0.012270    Uiso  ? O
   O47        1.0     0.331940     0.194110     0.140830    Uiso  ? O
   O48        1.0     0.246360     0.133400     0.237730    Uiso  ? O
   O49        1.0     0.253200     0.746800     0.250000    Uiso  ? O
   O50        1.0     0.694110     0.168060     0.359170    Uiso  ? O
   O51        1.0     0.633400     0.253640     0.262270    Uiso  ? O
   O52        1.0     0.246800     0.246800     0.250000    Uiso  ? O
   O53        1.0     0.331940     0.694110     0.109170    Uiso  ? O
   O54        1.0     0.246360     0.633400     0.012270    Uiso  ? O
   O55        1.0     0.305890     0.831940     0.359170    Uiso  ? O
   O56        1.0     0.366600     0.746360     0.262270    Uiso  ? O
   O57        1.0     0.753200     0.753200     0.250000    Uiso  ? O
   O58        1.0     0.305890     0.331940     0.890830    Uiso  ? O
   O59        1.0     0.366600     0.246360     0.987730    Uiso  ? O
   O60        1.0     0.694110     0.668060     0.890830    Uiso  ? O
   O61        1.0     0.633400     0.753640     0.987730    Uiso  ? O
   O62        1.0     0.168060     0.694110     0.140830    Uiso  ? O
   O63        1.0     0.253640     0.633400     0.237730    Uiso  ? O
   O64        1.0     0.831940     0.305890     0.140830    Uiso  ? O
   O65        1.0     0.746360     0.366600     0.237730    Uiso  ? O
   O66        1.0     0.305890     0.668060     0.390830    Uiso  ? O
   O67        1.0     0.366600     0.753640     0.487730    Uiso  ? O
   O68        1.0     0.694110     0.331940     0.390830    Uiso  ? O
   O69        1.0     0.633400     0.246360     0.487730    Uiso  ? O
   O70        1.0     0.668060     0.805890     0.140830    Uiso  ? O
   O71        1.0     0.753640     0.866600     0.237730    Uiso  ? O
   O72        1.0     0.746800     0.253200     0.250000    Uiso  ? O
   O73        1.0     0.331940     0.305890     0.609170    Uiso  ? O
   O74        1.0     0.246360     0.366600     0.512270    Uiso  ? O
   O75        1.0     0.668060     0.694110     0.609170    Uiso  ? O
   O76        1.0     0.753640     0.633400     0.512270    Uiso  ? O
   O77        1.0     0.194110     0.331940     0.359170    Uiso  ? O
   O78        1.0     0.133400     0.246360     0.262270    Uiso  ? O
   O79        1.0     0.805890     0.668060     0.359170    Uiso  ? O
   O80        1.0     0.866600     0.753640     0.262270    Uiso  ? O
