
#======================================================================
# CRYSTAL DATA
#----------------------------------------------------------------------
data_VESTA_phase_1

_chemical_name_common                  'MIP203-F'
_cell_length_a                         10.107000
_cell_length_b                         12.149000
_cell_length_c                         19.889999
_cell_angle_alpha                      90.000000
_cell_angle_beta                       90.000000
_cell_angle_gamma                      90.000000
_cell_volume                           2442.292010
_space_group_name_H-M_alt              'P 1'
_space_group_IT_number                 1

loop_
_space_group_symop_operation_xyz
   'x, y, z'

loop_
   _atom_site_label
   _atom_site_occupancy
   _atom_site_fract_x
   _atom_site_fract_y
   _atom_site_fract_z
   _atom_site_adp_type
   _atom_site_U_iso_or_equiv
   _atom_site_type_symbol
   Zr1        1.0     0.676000     0.334000     0.010600    Uiso  ? Zr
   Zr2        1.0     0.175800     0.829400     0.510600    Uiso  ? Zr
   Zr3        1.0     0.323200     0.322800     0.008700    Uiso  ? Zr
   Zr4        1.0     0.001400     0.975400     0.634500    Uiso  ? Zr
   Zr5        1.0     0.177000     0.125500     0.509000    Uiso  ? Zr
   Zr6        1.0     0.496300     0.475500     0.133800    Uiso  ? Zr
   Zr7        1.0     0.500700     0.477300     0.885400    Uiso  ? Zr
   Zr8        1.0     0.998700     0.973100     0.384900    Uiso  ? Zr
   Zr9        1.0     0.823700     0.117500     0.510700    Uiso  ? Zr
   Zr10       1.0     0.823300     0.822100     0.510800    Uiso  ? Zr
   Zr11       1.0     0.673300     0.629600     0.010400    Uiso  ? Zr
   Zr12       1.0     0.320100     0.618800     0.010200    Uiso  ? Zr
   H1         1.0     0.663200     0.648400     0.307700    Uiso  ? H
   H2         1.0     0.165100     0.333100     0.474300    Uiso  ? H
   H3         1.0     0.976100     0.310700     0.508900    Uiso  ? H
   H4         1.0     0.336800     0.852300     0.041200    Uiso  ? H
   H5         1.0     0.158400     0.600300     0.547500    Uiso  ? H
   H6         1.0     0.850500     0.780700     0.215400    Uiso  ? H
   H7         1.0     0.662300     0.102300     0.041900    Uiso  ? H
   H8         1.0     0.340000     0.116600     0.969100    Uiso  ? H
   H9         1.0     0.833700     0.614500     0.474500    Uiso  ? H
   H10        1.0     0.023700     0.636100     0.508900    Uiso  ? H
   H11        1.0     0.661300     0.835900     0.969500    Uiso  ? H
   H12        1.0     0.472400     0.812400     0.005000    Uiso  ? H
   H13        1.0     0.003400     0.205600     0.607200    Uiso  ? H
   H14        1.0     0.497200     0.710500     0.107600    Uiso  ? H
   H15        1.0     0.332200     0.651000     0.305900    Uiso  ? H
   H16        1.0     0.841300     0.346300     0.547400    Uiso  ? H
   H17        1.0     0.289900     0.973100     0.416400    Uiso  ? H
   H18        1.0     0.788000     0.480100     0.918800    Uiso  ? H
   H19        1.0     0.213100     0.473400     0.916500    Uiso  ? H
   H20        1.0     0.709500     0.973800     0.417200    Uiso  ? H
   H21        1.0     0.000400     0.274700     0.075500    Uiso  ? H
   H22        1.0     0.501700     0.760800     0.578900    Uiso  ? H
   H23        1.0     0.996900     0.682000     0.075000    Uiso  ? H
   H24        1.0     0.491800     0.188800     0.574700    Uiso  ? H
   H25        1.0     0.495100     0.242000     0.107100    Uiso  ? H
   H26        1.0     0.997400     0.741800     0.607500    Uiso  ? H
   H27        1.0     0.145900     0.787900     0.215400    Uiso  ? H
   H28        1.0     0.526600     0.140800     0.005000    Uiso  ? H
   H29        1.0     0.664800     0.295900     0.308000    Uiso  ? H
   H30        1.0     0.848600     0.163100     0.214100    Uiso  ? H
   H31        1.0     0.326200     0.300400     0.303900    Uiso  ? H
   H32        1.0     0.140300     0.167500     0.211200    Uiso  ? H
   H33        1.0     0.345200     0.658700     0.715100    Uiso  ? H
   H34        1.0     0.644000     0.674700     0.717200    Uiso  ? H
   H35        1.0     0.844000     0.796800     0.807900    Uiso  ? H
   H36        1.0     0.164400     0.797200     0.807400    Uiso  ? H
   H37        1.0     0.836500     0.156900     0.807200    Uiso  ? H
   H38        1.0     0.167200     0.155000     0.803800    Uiso  ? H
   H39        1.0     0.654000     0.292200     0.714000    Uiso  ? H
   H40        1.0     0.362200     0.280500     0.712200    Uiso  ? H
   C1         1.0     0.764200     0.219000     0.792700    Uiso  ? C
   C2         1.0     0.715900     0.291600     0.173700    Uiso  ? C
   C3         1.0     0.775200     0.224400     0.228500    Uiso  ? C
   C4         1.0     0.296800     0.283400     0.845300    Uiso  ? C
   C5         1.0     0.243200     0.214500     0.790200    Uiso  ? C
   C6         1.0     0.216200     0.788800     0.673700    Uiso  ? C
   C7         1.0     0.792200     0.779500     0.347700    Uiso  ? C
   C8         1.0     0.273500     0.721800     0.728800    Uiso  ? C
   C9         1.0     0.737000     0.709500     0.293500    Uiso  ? C
   C10        1.0     0.204600     0.782300     0.347600    Uiso  ? C
   C11        1.0     0.259000     0.713000     0.292400    Uiso  ? C
   C12        1.0     0.782400     0.796800     0.675400    Uiso  ? C
   C13        1.0     0.291100     0.664500     0.847700    Uiso  ? C
   C14        1.0     0.214000     0.228500     0.225700    Uiso  ? C
   C15        1.0     0.722200     0.732300     0.730500    Uiso  ? C
   C16        1.0     0.776500     0.719700     0.229400    Uiso  ? C
   C17        1.0     0.716800     0.654100     0.174400    Uiso  ? C
   C18        1.0     0.274400     0.295200     0.171300    Uiso  ? C
   C19        1.0     0.726400     0.230000     0.728300    Uiso  ? C
   C20        1.0     0.199500     0.169600     0.345200    Uiso  ? C
   C21        1.0     0.252800     0.238800     0.289900    Uiso  ? C
   C22        1.0     0.709000     0.288900     0.847400    Uiso  ? C
   C23        1.0     0.784300     0.161800     0.673600    Uiso  ? C
   C24        1.0     0.766000     0.739200     0.794000    Uiso  ? C
   C25        1.0     0.219400     0.725700     0.228300    Uiso  ? C
   C26        1.0     0.708700     0.670100     0.848000    Uiso  ? C
   C27        1.0     0.276500     0.660600     0.172200    Uiso  ? C
   C28        1.0     0.737900     0.234600     0.293100    Uiso  ? C
   C29        1.0     0.794200     0.164500     0.347600    Uiso  ? C
   C30        1.0     0.285800     0.221900     0.726600    Uiso  ? C
   C31        1.0     0.225000     0.154300     0.672700    Uiso  ? C
   C32        1.0     0.236100     0.734400     0.793200    Uiso  ? C
   C33        1.0     0.999000     0.322500     0.028200    Uiso  ? C
   C34        1.0     0.500400     0.809700     0.532100    Uiso  ? C
   C35        1.0     0.497400     0.140100     0.527900    Uiso  ? C
   C36        1.0     0.996500     0.630000     0.029500    Uiso  ? C
   O1         1.0     0.872800     0.306000     0.508400    Uiso  ? O
   O2         1.0     0.360400     0.366900     0.188200    Uiso  ? O
   O3         1.0     0.368500     0.365600     0.829100    Uiso  ? O
   O4         1.0     0.751100     0.267300     0.113200    Uiso  ? O
   O5         1.0     0.608900     0.106500     0.507800    Uiso  ? O
   O6         1.0     0.632700     0.365300     0.190900    Uiso  ? O
   O7         1.0     0.864800     0.860200     0.329500    Uiso  ? O
   O8         1.0     0.761300     0.753200     0.407800    Uiso  ? O
   O9         1.0     0.127100     0.640700     0.508400    Uiso  ? O
   O10        1.0     0.137600     0.866100     0.690800    Uiso  ? O
   O11        1.0     0.390600     0.840200     0.507900    Uiso  ? O
   O12        1.0     0.496100     0.645800     0.079100    Uiso  ? O
   O13        1.0     0.630400     0.146900     0.004700    Uiso  ? O
   O14        1.0     0.264700     0.253800     0.904700    Uiso  ? O
   O15        1.0     0.888700     0.352800     0.004200    Uiso  ? O
   O16        1.0     0.247500     0.760800     0.613400    Uiso  ? O
   O17        1.0     0.848900     0.973700     0.563300    Uiso  ? O
   O18        1.0     0.207800     0.974400     0.441800    Uiso  ? O
   O19        1.0     0.647000     0.478000     0.063100    Uiso  ? O
   O20        1.0     0.295600     0.473000     0.941600    Uiso  ? O
   O21        1.0     0.151700     0.973600     0.562800    Uiso  ? O
   O22        1.0     0.792200     0.972700     0.442100    Uiso  ? O
   O23        1.0     0.744000     0.773700     0.616100    Uiso  ? O
   O24        1.0     0.871400     0.866800     0.691600    Uiso  ? O
   O25        1.0     0.239400     0.272900     0.111400    Uiso  ? O
   O26        1.0     0.127600     0.860300     0.329400    Uiso  ? O
   O27        1.0     0.496800     0.307200     0.079000    Uiso  ? O
   O28        1.0     0.502600     0.353800     0.957700    Uiso  ? O
   O29        1.0     0.000800     0.140400     0.579200    Uiso  ? O
   O30        1.0     0.496200     0.599600     0.958000    Uiso  ? O
   O31        1.0     0.376200     0.153300     0.008500    Uiso  ? O
   O32        1.0     0.703400     0.480100     0.941900    Uiso  ? O
   O33        1.0     0.345500     0.474300     0.062700    Uiso  ? O
   O34        1.0     0.999300     0.093800     0.458100    Uiso  ? O
   O35        1.0     0.000300     0.852800     0.458100    Uiso  ? O
   O36        1.0     0.107100     0.345700     0.999700    Uiso  ? O
   O37        1.0     0.999800     0.806800     0.579200    Uiso  ? O
   O38        1.0     0.239300     0.759600     0.407500    Uiso  ? O
   O39        1.0     0.872400     0.652900     0.512500    Uiso  ? O
   O40        1.0     0.608500     0.833700     0.504000    Uiso  ? O
   O41        1.0     0.632000     0.580900     0.191300    Uiso  ? O
   O42        1.0     0.751800     0.679200     0.114700    Uiso  ? O
   O43        1.0     0.256300     0.686900     0.907700    Uiso  ? O
   O44        1.0     0.368500     0.586900     0.829300    Uiso  ? O
   O45        1.0     0.623600     0.799700     0.008600    Uiso  ? O
   O46        1.0     0.887500     0.600900     0.004200    Uiso  ? O
   O47        1.0     0.760500     0.187100     0.407800    Uiso  ? O
   O48        1.0     0.127500     0.294000     0.512500    Uiso  ? O
   O49        1.0     0.135700     0.086000     0.691000    Uiso  ? O
   O50        1.0     0.263300     0.172900     0.612600    Uiso  ? O
   O51        1.0     0.240600     0.686400     0.112300    Uiso  ? O
   O52        1.0     0.871400     0.086700     0.329200    Uiso  ? O
   O53        1.0     0.359900     0.586400     0.187700    Uiso  ? O
   O54        1.0     0.631500     0.366800     0.829200    Uiso  ? O
   O55        1.0     0.392000     0.119400     0.496000    Uiso  ? O
   O56        1.0     0.752000     0.186600     0.613000    Uiso  ? O
   O57        1.0     0.128500     0.086800     0.329100    Uiso  ? O
   O58        1.0     0.230900     0.199300     0.404500    Uiso  ? O
   O59        1.0     0.864300     0.086200     0.691200    Uiso  ? O
   O60        1.0     0.105600     0.600300     0.004100    Uiso  ? O
   O61        1.0     0.368900     0.806500     0.004600    Uiso  ? O
   O62        1.0     0.743300     0.266200     0.907300    Uiso  ? O
   O63        1.0     0.742800     0.693800     0.908100    Uiso  ? O
   O64        1.0     0.631100     0.593000     0.829600    Uiso  ? O
