
#======================================================================
# CRYSTAL DATA
#----------------------------------------------------------------------
data_VESTA_phase_1

_chemical_name_common                  'Zr-DHBQ-opt'
_cell_length_a                         21.647820
_cell_length_b                         6.766092
_cell_length_c                         15.816478
_cell_angle_alpha                      90.001411
_cell_angle_beta                       89.985649
_cell_angle_gamma                      89.995758
_cell_volume                           2316.657366
_space_group_name_H-M_alt              'P 1'
_space_group_IT_number                 1

loop_
_space_group_symop_operation_xyz
   'x, y, z'

loop_
   _atom_site_label
   _atom_site_occupancy
   _atom_site_fract_x
   _atom_site_fract_y
   _atom_site_fract_z
   _atom_site_adp_type
   _atom_site_U_iso_or_equiv
   _atom_site_type_symbol
   Zr1        1.0     0.667574     0.695053     0.504045    Uiso  ? Zr
   Zr2        1.0     0.167670     0.196055     0.503409    Uiso  ? Zr
   Zr3        1.0     0.330118     0.291270     0.503431    Uiso  ? Zr
   Zr4        1.0     0.829983     0.790717     0.503989    Uiso  ? Zr
   Zr5        1.0     0.330810     0.695953     0.003368    Uiso  ? Zr
   Zr6        1.0     0.830953     0.195684     0.004025    Uiso  ? Zr
   Zr7        1.0     0.668490     0.290216     0.004207    Uiso  ? Zr
   Zr8        1.0     0.168411     0.791357     0.003468    Uiso  ? Zr
   H1         1.0     0.659840     0.851761     0.809597    Uiso  ? H
   H2         1.0     0.159581     0.352528     0.808932    Uiso  ? H
   H3         1.0     0.338583     0.135264     0.808669    Uiso  ? H
   H4         1.0     0.838577     0.634765     0.809270    Uiso  ? H
   H5         1.0     0.337454     0.852014     0.698248    Uiso  ? H
   H6         1.0     0.836654     0.351448     0.698828    Uiso  ? H
   H7         1.0     0.658015     0.135116     0.699003    Uiso  ? H
   H8         1.0     0.157782     0.635927     0.698284    Uiso  ? H
   H9         1.0     0.338899     0.135400     0.198145    Uiso  ? H
   H10        1.0     0.839588     0.635264     0.198722    Uiso  ? H
   H11        1.0     0.659103     0.850091     0.199028    Uiso  ? H
   H12        1.0     0.159452     0.351480     0.198363    Uiso  ? H
   H13        1.0     0.660490     0.133427     0.309565    Uiso  ? H
   H14        1.0     0.161015     0.634784     0.308838    Uiso  ? H
   H15        1.0     0.340462     0.852033     0.308769    Uiso  ? H
   H16        1.0     0.841334     0.351801     0.309459    Uiso  ? H
   H17        1.0     0.271935     0.934825     0.500725    Uiso  ? H
   H18        1.0     0.225860     0.552641     0.505490    Uiso  ? H
   H19        1.0     0.226578     0.434891     0.999513    Uiso  ? H
   H20        1.0     0.272669     0.052623     0.006664    Uiso  ? H
   H21        1.0     0.725704     0.051662     0.506952    Uiso  ? H
   H22        1.0     0.771867     0.433999     0.500776    Uiso  ? H
   H23        1.0     0.772531     0.551924     0.008795    Uiso  ? H
   H24        1.0     0.726826     0.933947     0.000217    Uiso  ? H
   H25        1.0     0.443946     0.328764     0.004424    Uiso  ? H
   H26        1.0     0.555508     0.656954     0.004179    Uiso  ? H
   H27        1.0     0.554841     0.328443     0.506225    Uiso  ? H
   H28        1.0     0.055621     0.157975     0.003020    Uiso  ? H
   H29        1.0     0.442818     0.657602     0.503302    Uiso  ? H
   H30        1.0     0.054671     0.829085     0.505573    Uiso  ? H
   H31        1.0     0.943759     0.829190     0.004764    Uiso  ? H
   H32        1.0     0.942955     0.157634     0.503543    Uiso  ? H
   C1         1.0     0.659601     0.657212     0.309362    Uiso  ? C
   C2         1.0     0.658521     0.444724     0.341114    Uiso  ? C
   C3         1.0     0.659722     0.284258     0.285331    Uiso  ? C
   C4         1.0     0.159913     0.158531     0.308680    Uiso  ? C
   C5         1.0     0.158924     0.946024     0.340400    Uiso  ? C
   C6         1.0     0.160255     0.785616     0.284610    Uiso  ? C
   C7         1.0     0.339272     0.328288     0.308502    Uiso  ? C
   C8         1.0     0.340551     0.540720     0.340312    Uiso  ? C
   C9         1.0     0.340595     0.701156     0.284568    Uiso  ? C
   C10        1.0     0.839758     0.828061     0.309111    Uiso  ? C
   C11        1.0     0.840918     0.040474     0.340960    Uiso  ? C
   C12        1.0     0.841413     0.200942     0.285235    Uiso  ? C
   C13        1.0     0.339214     0.659149     0.198396    Uiso  ? C
   C14        1.0     0.339593     0.446667     0.166600    Uiso  ? C
   C15        1.0     0.339631     0.286265     0.222324    Uiso  ? C
   C16        1.0     0.840211     0.159022     0.199039    Uiso  ? C
   C17        1.0     0.840355     0.946548     0.167233    Uiso  ? C
   C18        1.0     0.840327     0.786108     0.222924    Uiso  ? C
   C19        1.0     0.661124     0.326374     0.199199    Uiso  ? C
   C20        1.0     0.659053     0.538821     0.167489    Uiso  ? C
   C21        1.0     0.658855     0.699266     0.223259    Uiso  ? C
   C22        1.0     0.161658     0.827775     0.198485    Uiso  ? C
   C23        1.0     0.159549     0.040225     0.166781    Uiso  ? C
   C24        1.0     0.159268     0.200635     0.222571    Uiso  ? C
   C25        1.0     0.337229     0.328257     0.698342    Uiso  ? C
   C26        1.0     0.338476     0.540748     0.666667    Uiso  ? C
   C27        1.0     0.338229     0.701147     0.722416    Uiso  ? C
   C28        1.0     0.836928     0.827700     0.698940    Uiso  ? C
   C29        1.0     0.838091     0.040188     0.667227    Uiso  ? C
   C30        1.0     0.837564     0.200611     0.723023    Uiso  ? C
   C31        1.0     0.659831     0.658831     0.699222    Uiso  ? C
   C32        1.0     0.658494     0.446362     0.667455    Uiso  ? C
   C33        1.0     0.657974     0.285994     0.723182    Uiso  ? C
   C34        1.0     0.159713     0.159639     0.698531    Uiso  ? C
   C35        1.0     0.158311     0.947174     0.666746    Uiso  ? C
   C36        1.0     0.157691     0.786794     0.722474    Uiso  ? C
   C37        1.0     0.658997     0.328002     0.809346    Uiso  ? C
   C38        1.0     0.658828     0.540459     0.841168    Uiso  ? C
   C39        1.0     0.659085     0.700885     0.785415    Uiso  ? C
   C40        1.0     0.158591     0.828790     0.808644    Uiso  ? C
   C41        1.0     0.158366     0.041241     0.840455    Uiso  ? C
   C42        1.0     0.158791     0.201681     0.784717    Uiso  ? C
   C43        1.0     0.338021     0.658999     0.808538    Uiso  ? C
   C44        1.0     0.339872     0.446524     0.840241    Uiso  ? C
   C45        1.0     0.338914     0.286112     0.784449    Uiso  ? C
   C46        1.0     0.837303     0.158492     0.809136    Uiso  ? C
   C47        1.0     0.839567     0.946057     0.840838    Uiso  ? C
   C48        1.0     0.838733     0.785608     0.785040    Uiso  ? C
   C49        1.0     0.563739     0.008384     0.505050    Uiso  ? C
   C50        1.0     0.530597     0.810182     0.504617    Uiso  ? C
   C51        1.0     0.466716     0.798795     0.504042    Uiso  ? C
   C52        1.0     0.063735     0.509033     0.504521    Uiso  ? C
   C53        1.0     0.030667     0.310671     0.504246    Uiso  ? C
   C54        1.0     0.966790     0.298955     0.504114    Uiso  ? C
   C55        1.0     0.433905     0.977673     0.504538    Uiso  ? C
   C56        1.0     0.467056     0.175851     0.505790    Uiso  ? C
   C57        1.0     0.530937     0.187240     0.505872    Uiso  ? C
   C58        1.0     0.933898     0.477659     0.504860    Uiso  ? C
   C59        1.0     0.966968     0.675994     0.505880    Uiso  ? C
   C60        1.0     0.030848     0.687725     0.505415    Uiso  ? C
   C61        1.0     0.434788     0.008648     0.003918    Uiso  ? C
   C62        1.0     0.467829     0.810244     0.004106    Uiso  ? C
   C63        1.0     0.531710     0.798372     0.004293    Uiso  ? C
   C64        1.0     0.934748     0.509073     0.003772    Uiso  ? C
   C65        1.0     0.967877     0.310825     0.003487    Uiso  ? C
   C66        1.0     0.031756     0.299253     0.003491    Uiso  ? C
   C67        1.0     0.564633     0.977007     0.004783    Uiso  ? C
   C68        1.0     0.531573     0.175374     0.005190    Uiso  ? C
   C69        1.0     0.467710     0.187272     0.004535    Uiso  ? C
   C70        1.0     0.064595     0.478019     0.004364    Uiso  ? C
   C71        1.0     0.031472     0.676261     0.005152    Uiso  ? C
   C72        1.0     0.967596     0.687846     0.004628    Uiso  ? C
   O1         1.0     0.661566     0.786798     0.368660    Uiso  ? O
   O2         1.0     0.657554     0.428604     0.421465    Uiso  ? O
   O3         1.0     0.161686     0.288056     0.368011    Uiso  ? O
   O4         1.0     0.157883     0.929791     0.420746    Uiso  ? O
   O5         1.0     0.337301     0.198786     0.367794    Uiso  ? O
   O6         1.0     0.340598     0.556719     0.420715    Uiso  ? O
   O7         1.0     0.837606     0.698491     0.368357    Uiso  ? O
   O8         1.0     0.840449     0.056397     0.421364    Uiso  ? O
   O9         1.0     0.336947     0.788625     0.139120    Uiso  ? O
   O10        1.0     0.338961     0.430447     0.086202    Uiso  ? O
   O11        1.0     0.838232     0.288511     0.139748    Uiso  ? O
   O12        1.0     0.839604     0.930361     0.086830    Uiso  ? O
   O13        1.0     0.664501     0.197162     0.139853    Uiso  ? O
   O14        1.0     0.658616     0.555349     0.087155    Uiso  ? O
   O15        1.0     0.165037     0.698546     0.139146    Uiso  ? O
   O16        1.0     0.159098     0.056725     0.086444    Uiso  ? O
   O17        1.0     0.334210     0.198872     0.639037    Uiso  ? O
   O18        1.0     0.338713     0.557192     0.586267    Uiso  ? O
   O19        1.0     0.833912     0.698320     0.639620    Uiso  ? O
   O20        1.0     0.838499     0.056655     0.586881    Uiso  ? O
   O21        1.0     0.662229     0.788174     0.639899    Uiso  ? O
   O22        1.0     0.658800     0.430056     0.587058    Uiso  ? O
   O23        1.0     0.162339     0.288997     0.639230    Uiso  ? O
   O24        1.0     0.158694     0.930902     0.586359    Uiso  ? O
   O25        1.0     0.660787     0.198377     0.868595    Uiso  ? O
   O26        1.0     0.659368     0.556417     0.921578    Uiso  ? O
   O27        1.0     0.160307     0.699198     0.867912    Uiso  ? O
   O28        1.0     0.158740     0.057262     0.920866    Uiso  ? O
   O29        1.0     0.335986     0.788423     0.867889    Uiso  ? O
   O30        1.0     0.341240     0.430243     0.920564    Uiso  ? O
   O31        1.0     0.834948     0.287897     0.868483    Uiso  ? O
   O32        1.0     0.841127     0.929845     0.921152    Uiso  ? O
   O33        1.0     0.738497     0.914078     0.504074    Uiso  ? O
   O34        1.0     0.567519     0.660145     0.504655    Uiso  ? O
   O35        1.0     0.622345     0.994962     0.504626    Uiso  ? O
   O36        1.0     0.238621     0.414969     0.503232    Uiso  ? O
   O37        1.0     0.067643     0.160773     0.504002    Uiso  ? O
   O38        1.0     0.122345     0.495853     0.503927    Uiso  ? O
   O39        1.0     0.259169     0.072588     0.501270    Uiso  ? O
   O40        1.0     0.430142     0.325889     0.506454    Uiso  ? O
   O41        1.0     0.375302     0.991180     0.503999    Uiso  ? O
   O42        1.0     0.759099     0.571758     0.501344    Uiso  ? O
   O43        1.0     0.929994     0.825876     0.506942    Uiso  ? O
   O44        1.0     0.875288     0.490858     0.504750    Uiso  ? O
   O45        1.0     0.259908     0.914946     0.004513    Uiso  ? O
   O46        1.0     0.430829     0.660407     0.003950    Uiso  ? O
   O47        1.0     0.376177     0.995613     0.003241    Uiso  ? O
   O48        1.0     0.759936     0.414107     0.006638    Uiso  ? O
   O49        1.0     0.930951     0.160805     0.003131    Uiso  ? O
   O50        1.0     0.876142     0.495709     0.003214    Uiso  ? O
   O51        1.0     0.739473     0.071800     0.001149    Uiso  ? O
   O52        1.0     0.568530     0.325259     0.006041    Uiso  ? O
   O53        1.0     0.623243     0.990156     0.004944    Uiso  ? O
   O54        1.0     0.239319     0.572670     0.999913    Uiso  ? O
   O55        1.0     0.068402     0.826233     0.006189    Uiso  ? O
   O56        1.0     0.123197     0.491348     0.004585    Uiso  ? O
